@<TRIPOS>MOLECULE
CHEMBL227063
   41    44     0     0     0
SMALL
USER_CHARGES

@<TRIPOS>ATOM
      1 C1          0.1894    1.8200   -0.2038 C.3       1 <0>        -0.1535
      2 C2          0.0667    0.2996   -0.0850 C.3       1 <0>        -0.0748
      3 C3          0.7297   -0.3521   -1.2711 C.2       1 <0>        -0.0101
      4 C4          0.0992   -0.6880   -2.5476 C.ar      1 <0>        -0.2568
      5 C5         -1.1917   -0.5499   -3.0813 C.ar      1 <0>         0.5835
      6 N1         -1.4147   -0.9808   -4.3186 N.ar      1 <0>        -0.5877
      7 C6         -0.4423   -1.5294   -5.0362 C.ar      1 <0>         0.6997
      8 N2          0.7864   -1.6780   -4.5714 N.ar      1 <0>        -0.5736
      9 C7          1.1010   -1.2748   -3.3411 C.ar      1 <0>         0.3585
     10 N3          2.2528   -1.2919   -2.5977 N.pl3     1 <0>        -0.5175
     11 H1          3.1050   -1.6430   -2.9000 H         1 <0>         0.4386
     12 C8          2.0233   -0.7336   -1.3628 C.2       1 <0>        -0.0132
     13 S1          3.2299   -0.5469   -0.0924 S.3       1 <0>         0.1499
     14 C9          2.8591   -1.8437    1.0415 C.ar      1 <0>        -0.1112
     15 C10         1.8858   -2.7735    0.7402 C.ar      1 <0>        -0.0989
     16 C11         1.5838   -3.8018    1.6267 C.ar      1 <0>        -0.1100
     17 C12         2.2397   -3.9183    2.8153 C.ar      1 <0>        -0.0788
     18 C13         3.2372   -2.9917    3.1589 C.ar      1 <0>        -0.0908
     19 C14         3.5604   -1.9428    2.2640 C.ar      1 <0>         0.1515
     20 N4          4.5119   -1.0630    2.5854 N.ar      1 <0>        -0.4788
     21 C15         5.1660   -1.1492    3.7185 C.ar      1 <0>         0.1481
     22 C16         4.9029   -2.1595    4.6409 C.ar      1 <0>        -0.1666
     23 C17         3.9329   -3.0851    4.3795 C.ar      1 <0>        -0.0514
     24 N5         -0.7260   -1.9636   -6.3218 N.pl3     1 <0>        -0.7892
     25 N6         -2.2089    0.0214   -2.3360 N.pl3     1 <0>        -0.7737
     26 H2          1.2428    2.0987   -0.2296 H         1 <0>         0.0715
     27 H3         -0.2972    2.1533   -1.1205 H         1 <0>         0.0562
     28 H4         -0.2902    2.2914    0.6541 H         1 <0>         0.0766
     29 H5          0.5532   -0.0336    0.8317 H         1 <0>         0.0986
     30 H6         -0.9868    0.0210   -0.0591 H         1 <0>         0.0783
     31 H7          1.3514   -2.7019   -0.1956 H         1 <0>         0.1220
     32 H8          0.8178   -4.5183    1.3694 H         1 <0>         0.1332
     33 H9          1.9924   -4.7224    3.4925 H         1 <0>         0.1384
     34 H10         5.9288   -0.4183    3.9424 H         1 <0>         0.1675
     35 H11         5.4586   -2.2053    5.5658 H         1 <0>         0.1461
     36 H12         3.7150   -3.8745    5.0836 H         1 <0>         0.1465
     37 H13        -1.6215   -1.8637   -6.6810 H         1 <0>         0.4471
     38 H14        -0.0289   -2.3672   -6.8623 H         1 <0>         0.4300
     39 H15        -2.0337    0.3318   -1.4338 H         1 <0>         0.4298
     40 H16        -3.0969    0.1114   -2.7159 H         1 <0>         0.4295
     41 H17         1.4657   -2.0851   -5.1316 H         1 <0>         0.4355
@<TRIPOS>BOND
     1    1    2 1
     2    1   26 1
     3    1   27 1
     4    1   28 1
     5    2    3 1
     6    2   29 1
     7    2   30 1
     8    3   12 2
     9    3    4 1
    10    4    9 ar
    11    4    5 ar
    12    5    6 ar
    13    5   25 1
    14    6    7 ar
    15    7    8 ar
    16    7   24 1
    17    8    9 ar
    18    8   41 1
    19    9   10 1
    20   10   11 1
    21   10   12 1
    22   12   13 1
    23   13   14 1
    24   14   19 ar
    25   14   15 ar
    26   15   16 ar
    27   15   31 1
    28   16   17 ar
    29   16   32 1
    30   17   18 ar
    31   17   33 1
    32   18   23 ar
    33   18   19 ar
    34   19   20 ar
    35   20   21 ar
    36   21   22 ar
    37   21   34 1
    38   22   23 ar
    39   22   35 1
    40   23   36 1
    41   24   37 1
    42   24   38 1
    43   25   39 1
    44   25   40 1
@<TRIPOS>MOLECULE
CHEMBL283311
   38    41     0     0     0
SMALL
USER_CHARGES

@<TRIPOS>ATOM
      1 C1         -0.0164    1.3569    0.0095 C.ar      1 <0>        -0.1081
      2 C2          1.1683    2.0910    0.0021 C.ar      1 <0>        -0.1042
      3 C3          2.3781    1.4678   -0.0128 C.ar      1 <0>        -0.1080
      4 C4          2.4371    0.0630   -0.0208 C.ar      1 <0>        -0.0366
      5 C5          3.6677   -0.6129   -0.0357 C.ar      1 <0>        -0.0718
      6 C6          3.6850   -1.9910   -0.0428 C.ar      1 <0>        -0.1000
      7 C7          2.4890   -2.7204   -0.0359 C.ar      1 <0>        -0.1371
      8 C8          1.2861   -2.0887   -0.0216 C.ar      1 <0>        -0.0756
      9 C9          1.2320   -0.6835   -0.0134 C.ar      1 <0>        -0.0531
     10 C10         0.0021   -0.0041    0.0020 C.ar      1 <0>        -0.1052
     11 S1          5.2267   -2.8439   -0.0614 S.3       1 <0>        -0.0933
     12 C11         4.7586   -4.5965   -0.0660 C.3       1 <0>        -0.0593
     13 C12         6.0017   -5.4483   -0.0818 C.2       1 <0>        -0.1047
     14 C13         6.6598   -5.8935   -1.1612 C.2       1 <0>         0.0503
     15 O1          7.7254   -6.6250   -0.7835 O.3       1 <0>        -0.1430
     16 C14         7.8126   -6.6913    0.5555 C.ar      1 <0>         0.3282
     17 C15         6.7390   -5.9522    1.0795 C.ar      1 <0>        -0.2569
     18 C16         6.5969   -5.8538    2.4708 C.ar      1 <0>         0.5807
     19 N1          7.4908   -6.4651    3.2426 N.ar      1 <0>        -0.5748
     20 C17         8.4933   -7.1518    2.7100 C.ar      1 <0>         0.6990
     21 N2          8.6566   -7.2741    1.4028 N.ar      1 <0>        -0.5518
     22 N3          9.3989   -7.7711    3.5549 N.pl3     1 <0>        -0.7809
     23 N4          5.5526   -5.1379    3.0272 N.pl3     1 <0>        -0.7642
     24 H1         -0.9634    1.8758    0.0259 H         1 <0>         0.1291
     25 H2          1.1257    3.1701    0.0080 H         1 <0>         0.1295
     26 H3          3.2881    2.0493   -0.0187 H         1 <0>         0.1313
     27 H4          4.5937   -0.0571   -0.0417 H         1 <0>         0.1344
     28 H5          2.5235   -3.7999   -0.0425 H         1 <0>         0.1214
     29 H6          0.3728   -2.6650   -0.0168 H         1 <0>         0.1342
     30 H7         -0.9243   -0.5592    0.0082 H         1 <0>         0.1313
     31 H8          4.1767   -4.8195    0.8283 H         1 <0>         0.0992
     32 H9          4.1603   -4.8104   -0.9516 H         1 <0>         0.1240
     33 H10         6.3766   -5.6949   -2.1843 H         1 <0>         0.2467
     34 H11         9.2934   -7.6982    4.5164 H         1 <0>         0.4500
     35 H12        10.1387   -8.2779    3.1852 H         1 <0>         0.4331
     36 H13         4.9073   -4.6963    2.4532 H         1 <0>         0.4294
     37 H14         5.4654   -5.0775    3.9914 H         1 <0>         0.4327
     38 H15         9.4057   -7.7853    1.0586 H         1 <0>         0.4441
@<TRIPOS>BOND
     1    1   10 ar
     2    1    2 ar
     3    1   24 1
     4    2    3 ar
     5    2   25 1
     6    3    4 ar
     7    3   26 1
     8    4    9 ar
     9    4    5 ar
    10    5    6 ar
    11    5   27 1
    12    6    7 ar
    13    6   11 1
    14    7    8 ar
    15    7   28 1
    16    8    9 ar
    17    8   29 1
    18    9   10 ar
    19   10   30 1
    20   11   12 1
    21   12   13 1
    22   12   31 1
    23   12   32 1
    24   13   17 1
    25   13   14 2
    26   14   15 1
    27   14   33 1
    28   15   16 1
    29   16   21 ar
    30   16   17 ar
    31   17   18 ar
    32   18   19 ar
    33   18   23 1
    34   19   20 ar
    35   20   21 ar
    36   20   22 1
    37   21   38 1
    38   22   34 1
    39   22   35 1
    40   23   36 1
    41   23   37 1
@<TRIPOS>MOLECULE
CHEMBL283311__1
   37    40     0     0     0
SMALL
USER_CHARGES

@<TRIPOS>ATOM
      1 C1         -0.0164    1.3569    0.0095 C.ar      1 <0>        -0.1164
      2 C2          1.1683    2.0910    0.0021 C.ar      1 <0>        -0.1097
      3 C3          2.3781    1.4678   -0.0128 C.ar      1 <0>        -0.1077
      4 C4          2.4371    0.0630   -0.0208 C.ar      1 <0>        -0.0339
      5 C5          3.6677   -0.6129   -0.0357 C.ar      1 <0>        -0.0836
      6 C6          3.6850   -1.9910   -0.0428 C.ar      1 <0>        -0.0891
      7 C7          2.4890   -2.7204   -0.0359 C.ar      1 <0>        -0.1322
      8 C8          1.2861   -2.0887   -0.0216 C.ar      1 <0>        -0.0812
      9 C9          1.2320   -0.6835   -0.0134 C.ar      1 <0>        -0.0578
     10 C10         0.0021   -0.0041    0.0020 C.ar      1 <0>        -0.1030
     11 S1          5.2267   -2.8439   -0.0614 S.3       1 <0>        -0.0972
     12 C11         4.7586   -4.5965   -0.0660 C.3       1 <0>        -0.0392
     13 C12         6.0017   -5.4483   -0.0818 C.2       1 <0>        -0.1273
     14 C13         6.6598   -5.8935   -1.1612 C.2       1 <0>         0.0169
     15 O1          7.7254   -6.6250   -0.7835 O.3       1 <0>        -0.1728
     16 C14         7.8126   -6.6913    0.5555 C.ar      1 <0>         0.3722
     17 C15         6.7390   -5.9522    1.0795 C.ar      1 <0>        -0.3306
     18 C16         6.5969   -5.8538    2.4708 C.ar      1 <0>         0.5365
     19 N1          7.4908   -6.4651    3.2426 N.ar      1 <0>        -0.6286
     20 C17         8.4933   -7.1518    2.7100 C.ar      1 <0>         0.6393
     21 N2          8.6566   -7.2741    1.4028 N.ar      1 <0>        -0.5971
     22 N3          9.3989   -7.7711    3.5549 N.pl3     1 <0>        -0.8114
     23 N4          5.5526   -5.1379    3.0272 N.pl3     1 <0>        -0.8210
     24 H1         -0.9634    1.8758    0.0259 H         1 <0>         0.1250
     25 H2          1.1257    3.1701    0.0080 H         1 <0>         0.1256
     26 H3          3.2881    2.0493   -0.0187 H         1 <0>         0.1291
     27 H4          4.5937   -0.0571   -0.0417 H         1 <0>         0.1332
     28 H5          2.5235   -3.7999   -0.0425 H         1 <0>         0.1235
     29 H6          0.3728   -2.6650   -0.0168 H         1 <0>         0.1316
     30 H7         -0.9243   -0.5592    0.0082 H         1 <0>         0.1282
     31 H8          4.1767   -4.8195    0.8283 H         1 <0>         0.0928
     32 H9          4.1603   -4.8104   -0.9516 H         1 <0>         0.1075
     33 H10         6.3766   -5.6949   -2.1843 H         1 <0>         0.2195
     34 H11         9.2934   -7.6982    4.5164 H         1 <0>         0.4186
     35 H12        10.1387   -8.2779    3.1852 H         1 <0>         0.4181
     36 H13         4.9073   -4.6963    2.4532 H         1 <0>         0.4108
     37 H14         5.4654   -5.0775    3.9914 H         1 <0>         0.4114
@<TRIPOS>BOND
     1    1   10 ar
     2    1    2 ar
     3    1   24 1
     4    2    3 ar
     5    2   25 1
     6    3    4 ar
     7    3   26 1
     8    4    9 ar
     9    4    5 ar
    10    5    6 ar
    11    5   27 1
    12    6    7 ar
    13    6   11 1
    14    7    8 ar
    15    7   28 1
    16    8    9 ar
    17    8   29 1
    18    9   10 ar
    19   10   30 1
    20   11   12 1
    21   12   13 1
    22   12   31 1
    23   12   32 1
    24   13   17 1
    25   13   14 2
    26   14   15 1
    27   14   33 1
    28   15   16 1
    29   16   21 ar
    30   16   17 ar
    31   17   18 ar
    32   18   19 ar
    33   18   23 1
    34   19   20 ar
    35   20   21 ar
    36   20   22 1
    37   22   34 1
    38   22   35 1
    39   23   36 1
    40   23   37 1
@<TRIPOS>MOLECULE
CHEMBL44693
   68    72     0     0     0
SMALL
USER_CHARGES

@<TRIPOS>ATOM
      1 C1         -0.0439    1.5213   -0.0140 C.3       1 <0>         0.0924
      2 N1         -0.0227    0.0565   -0.0117 N.pl3     1 <0>        -0.6202
      3 C2         -0.0034   -0.6738    1.2581 C.3       1 <0>         0.1837
      4 C3         -1.4174   -0.9448    1.7033 C.ar      1 <0>         0.0235
      5 C4         -2.0158   -2.1664    1.3965 C.ar      1 <0>         0.1544
      6 N2         -3.2493   -2.4263    1.7749 N.ar      1 <0>        -0.4365
      7 C5         -3.9351   -1.5086    2.4607 C.ar      1 <0>         0.3747
      8 C6         -3.3222   -0.2687    2.7699 C.ar      1 <0>        -0.0923
      9 N3         -2.0736   -0.0282    2.3826 N.ar      1 <0>        -0.3708
     10 C7         -4.1055    0.7119    3.5236 C.ar      1 <0>         0.5437
     11 N4         -5.3410    0.3784    3.8703 N.ar      1 <0>        -0.6287
     12 C8         -5.8532   -0.8046    3.5461 C.ar      1 <0>         0.6387
     13 N5         -5.1919   -1.7225    2.8695 N.ar      1 <0>        -0.5993
     14 N6         -7.1474   -1.0872    3.9392 N.pl3     1 <0>        -0.8077
     15 N7         -3.5771    1.9385    3.8612 N.pl3     1 <0>        -0.7936
     16 C9         -0.0210   -0.6407   -1.2148 C.ar      1 <0>         0.2281
     17 C10        -0.0066   -2.0328   -1.2109 C.ar      1 <0>        -0.2110
     18 C11        -0.0048   -2.7256   -2.3998 C.ar      1 <0>        -0.0111
     19 C12        -0.0174   -2.0301   -3.6124 C.ar      1 <0>        -0.1739
     20 C13        -0.0319   -0.6322   -3.6130 C.ar      1 <0>        -0.0360
     21 C14        -0.0393    0.0548   -2.4207 C.ar      1 <0>        -0.2019
     22 C15        -0.0150   -2.7697   -4.8888 C.2       1 <0>         0.5552
     23 O1         -0.0021   -3.9856   -4.8869 O.2       1 <0>        -0.5472
     24 N8         -0.0273   -2.0978   -6.0571 N.am      1 <0>        -0.6936
     25 C16        -0.0249   -2.8323   -7.3246 C.3       1 <0>         0.0769
     26 C17         0.5706   -1.9505   -8.4240 C.3       1 <0>        -0.0946
     27 C18         2.0430   -1.6734   -8.1139 C.3       1 <0>        -0.1357
     28 C19         2.6296   -0.8048   -9.1968 C.2       1 <0>         0.5130
     29 O2          1.9380   -0.4429  -10.1252 O.2       1 <0>        -0.5091
     30 N9          3.9227   -0.4301   -9.1336 N.am      1 <0>        -0.6764
     31 C20         4.4940    0.2955  -10.1871 C.ar      1 <0>         0.1643
     32 C21         5.8200    0.0815  -10.5387 C.ar      1 <0>        -0.1383
     33 C22         6.3847    0.7961  -11.5777 C.ar      1 <0>        -0.0802
     34 C23         5.6299    1.7282  -12.2714 C.ar      1 <0>         0.0086
     35 C24         4.2995    1.9452  -11.9210 C.ar      1 <0>         0.0531
     36 C25         3.7327    1.2243  -10.8831 C.ar      1 <0>        -0.1057
     37 O3          3.7815    2.9019  -12.7455 O.3       1 <0>        -0.3058
     38 C26         4.9191    3.5598  -13.3338 C.3       1 <0>         0.2133
     39 O4          5.9451    2.5498  -13.3162 O.3       1 <0>        -0.3106
     40 C27        -1.4380   -3.2064   -7.6910 C.2       1 <0>         0.4927
     41 O5         -2.3663   -2.4972   -7.3422 O.co2     1 <0>        -0.6887
     42 O6         -1.6529   -4.2183   -8.3363 O.co2     1 <0>        -0.6931
     43 H1          0.9783    1.8995   -0.0216 H         1 <0>         0.0520
     44 H2         -0.5691    1.8757   -0.9010 H         1 <0>         0.0687
     45 H3         -0.5568    1.8787    0.8789 H         1 <0>         0.0690
     46 H4          0.5232   -1.6189    1.1257 H         1 <0>         0.1017
     47 H5          0.5070   -0.0761    2.0133 H         1 <0>         0.0971
     48 H6         -1.4605   -2.9080    0.8414 H         1 <0>         0.1796
     49 H7         -7.6572   -0.4300    4.4382 H         1 <0>         0.4160
     50 H8         -7.5462   -1.9429    3.7161 H         1 <0>         0.4200
     51 H9         -2.6710    2.1650    3.5992 H         1 <0>         0.4247
     52 H10        -4.1110    2.5757    4.3610 H         1 <0>         0.4151
     53 H11         0.0036   -2.5695   -0.2738 H         1 <0>         0.1241
     54 H12         0.0068   -3.8055   -2.3962 H         1 <0>         0.1363
     55 H13        -0.0413   -0.0921   -4.5482 H         1 <0>         0.1251
     56 H14        -0.0553    1.1347   -2.4204 H         1 <0>         0.1255
     57 H15        -0.0376   -1.1278   -6.0586 H         1 <0>         0.3892
     58 H16         0.5747   -3.7365   -7.2195 H         1 <0>         0.0852
     59 H17         0.4913   -2.4622   -9.3831 H         1 <0>         0.0857
     60 H18         0.0252   -1.0078   -8.4689 H         1 <0>         0.0737
     61 H19         2.1223   -1.1617   -7.1548 H         1 <0>         0.0957
     62 H20         2.5885   -2.6161   -8.0690 H         1 <0>         0.0996
     63 H21         4.4578   -0.6629   -8.3588 H         1 <0>         0.4147
     64 H22         6.4108   -0.6439   -9.9992 H         1 <0>         0.1419
     65 H23         7.4163    0.6279  -11.8495 H         1 <0>         0.1386
     66 H24         2.7000    1.3878  -10.6128 H         1 <0>         0.1537
     67 H25         4.6988    3.8641  -14.3570 H         1 <0>         0.1304
     68 H26         5.2173    4.4193  -12.7334 H         1 <0>         0.0829
@<TRIPOS>BOND
     1    1    2 1
     2    1   43 1
     3    1   44 1
     4    1   45 1
     5    2    3 1
     6    2   16 1
     7    3    4 1
     8    3   46 1
     9    3   47 1
    10    4    9 ar
    11    4    5 ar
    12    5    6 ar
    13    5   48 1
    14    6    7 ar
    15    7   13 ar
    16    7    8 ar
    17    8    9 ar
    18    8   10 ar
    19   10   11 ar
    20   10   15 1
    21   11   12 ar
    22   12   13 ar
    23   12   14 1
    24   14   49 1
    25   14   50 1
    26   15   51 1
    27   15   52 1
    28   16   21 ar
    29   16   17 ar
    30   17   18 ar
    31   17   53 1
    32   18   19 ar
    33   18   54 1
    34   19   20 ar
    35   19   22 1
    36   20   21 ar
    37   20   55 1
    38   21   56 1
    39   22   23 2
    40   22   24 am
    41   24   25 1
    42   24   57 1
    43   25   26 1
    44   25   40 1
    45   25   58 1
    46   26   27 1
    47   26   59 1
    48   26   60 1
    49   27   28 1
    50   27   61 1
    51   27   62 1
    52   28   29 2
    53   28   30 am
    54   30   31 1
    55   30   63 1
    56   31   36 ar
    57   31   32 ar
    58   32   33 ar
    59   32   64 1
    60   33   34 ar
    61   33   65 1
    62   34   39 1
    63   34   35 ar
    64   35   36 ar
    65   35   37 1
    66   36   66 1
    67   37   38 1
    68   38   39 1
    69   38   67 1
    70   38   68 1
    71   40   41 2
    72   40   42 1
@<TRIPOS>MOLECULE
CHEMBL44693__1
   68    72     0     0     0
SMALL
USER_CHARGES

@<TRIPOS>ATOM
      1 C1         -0.0439    1.3996    0.0346 C.3       1 <0>         0.0926
      2 N1         -0.0230   -0.0652    0.0163 N.pl3     1 <0>        -0.6203
      3 C2         -0.0039   -0.8133    1.2758 C.3       1 <0>         0.1825
      4 C3         -1.4180   -1.0902    1.7171 C.ar      1 <0>         0.0262
      5 C4         -2.0166   -2.3073    1.3931 C.ar      1 <0>         0.1544
      6 N2         -3.2501   -2.5722    1.7677 N.ar      1 <0>        -0.4378
      7 C5         -3.9358   -1.6640    2.4663 C.ar      1 <0>         0.3735
      8 C6         -3.3227   -0.4287    2.7929 C.ar      1 <0>        -0.0920
      9 N3         -2.0740   -0.1832    2.4091 N.ar      1 <0>        -0.3710
     10 C7         -4.1058    0.5413    3.5603 C.ar      1 <0>         0.5438
     11 N4         -5.3414    0.2032    3.9022 N.ar      1 <0>        -0.6292
     12 C8         -5.8538   -0.9751    3.5614 C.ar      1 <0>         0.6384
     13 N5         -5.1926   -1.8835    2.8720 N.ar      1 <0>        -0.6003
     14 N6         -7.1481   -1.2629    3.9504 N.pl3     1 <0>        -0.8082
     15 N7         -3.5772    1.7630    3.9152 N.pl3     1 <0>        -0.7932
     16 C9         -0.0213   -0.7454   -1.1964 C.ar      1 <0>         0.2272
     17 C10        -0.0072   -2.1374   -1.2121 C.ar      1 <0>        -0.2107
     18 C11        -0.0055   -2.8134   -2.4106 C.ar      1 <0>        -0.0114
     19 C12        -0.0179   -2.1010   -3.6133 C.ar      1 <0>        -0.1713
     20 C13        -0.0321   -0.7032   -3.5943 C.ar      1 <0>        -0.0368
     21 C14        -0.0395   -0.0330   -2.3924 C.ar      1 <0>        -0.2020
     22 C15        -0.0157   -2.8226   -4.9000 C.2       1 <0>         0.5619
     23 O1         -0.0029   -4.0384   -4.9151 O.2       1 <0>        -0.5488
     24 N8         -0.0277   -2.1343   -6.0587 N.am      1 <0>        -0.6940
     25 C16        -0.0254   -2.8510   -7.3364 C.3       1 <0>         0.0757
     26 C17        -0.6488   -1.9667   -8.4182 C.3       1 <0>        -0.0926
     27 C18        -2.1241   -1.7254   -8.0921 C.3       1 <0>        -0.1368
     28 C19        -2.7382   -0.8544   -9.1577 C.2       1 <0>         0.5129
     29 O2         -2.0623   -0.4650  -10.0866 O.2       1 <0>        -0.5086
     30 N9         -4.0383   -0.5082   -9.0785 N.am      1 <0>        -0.6768
     31 C20        -4.5852    0.3791  -10.0146 C.ar      1 <0>         0.1645
     32 C21        -5.5595    1.2876   -9.6233 C.ar      1 <0>        -0.1390
     33 C22        -6.0994    2.1637  -10.5453 C.ar      1 <0>        -0.0805
     34 C23        -5.6708    2.1380  -11.8627 C.ar      1 <0>         0.0084
     35 C24        -4.6936    1.2278  -12.2582 C.ar      1 <0>         0.0536
     36 C25        -4.1488    0.3539  -11.3321 C.ar      1 <0>        -0.1055
     37 O3         -4.4489    1.4014  -13.5899 O.3       1 <0>        -0.3055
     38 C26        -5.5741    2.1449  -14.0941 C.3       1 <0>         0.2132
     39 O4         -6.0383    2.8821  -12.9476 O.3       1 <0>        -0.3108
     40 C27         1.3921   -3.1898   -7.7198 C.2       1 <0>         0.4911
     41 O5          2.3149   -2.8629   -6.9931 O.co2     1 <0>        -0.6832
     42 O6          1.6161   -3.7908   -8.7567 O.co2     1 <0>        -0.6966
     43 H1          0.9784    1.7776    0.0323 H         1 <0>         0.0526
     44 H2         -0.5690    1.7665   -0.8473 H         1 <0>         0.0681
     45 H3         -0.5568    1.7444    0.9325 H         1 <0>         0.0686
     46 H4          0.5225   -1.7565    1.1302 H         1 <0>         0.1023
     47 H5          0.5066   -0.2263    2.0393 H         1 <0>         0.0974
     48 H6         -1.4614   -3.0411    0.8277 H         1 <0>         0.1802
     49 H7         -7.6578   -0.6126    4.4586 H         1 <0>         0.4160
     50 H8         -7.5470   -2.1152    3.7153 H         1 <0>         0.4196
     51 H9         -2.6710    1.9929    3.6564 H         1 <0>         0.4251
     52 H10        -4.1110    2.3932    4.4238 H         1 <0>         0.4152
     53 H11         0.0028   -2.6872   -0.2826 H         1 <0>         0.1237
     54 H12         0.0058   -3.8933   -2.4222 H         1 <0>         0.1360
     55 H13        -0.0414   -0.1500   -4.5218 H         1 <0>         0.1241
     56 H14        -0.0553    1.0468   -2.3770 H         1 <0>         0.1250
     57 H15        -0.0378   -1.1644   -6.0466 H         1 <0>         0.3871
     58 H16        -0.6048   -3.7691   -7.2391 H         1 <0>         0.0851
     59 H17        -0.1239   -1.0121   -8.4544 H         1 <0>         0.0690
     60 H18        -0.5670   -2.4632   -9.3851 H         1 <0>         0.0920
     61 H19        -2.6490   -2.6800   -8.0560 H         1 <0>         0.0987
     62 H20        -2.2060   -1.2289   -7.1252 H         1 <0>         0.0950
     63 H21        -4.5953   -0.8734   -8.3734 H         1 <0>         0.4146
     64 H22        -5.8960    1.3092   -8.5973 H         1 <0>         0.1412
     65 H23        -6.8572    2.8695  -10.2387 H         1 <0>         0.1382
     66 H24        -3.3878   -0.3496  -11.6357 H         1 <0>         0.1544
     67 H25        -5.2599    2.8255  -14.8854 H         1 <0>         0.1305
     68 H26        -6.3495    1.4689  -14.4543 H         1 <0>         0.0831
@<TRIPOS>BOND
     1    1    2 1
     2    1   43 1
     3    1   44 1
     4    1   45 1
     5    2    3 1
     6    2   16 1
     7    3    4 1
     8    3   46 1
     9    3   47 1
    10    4    9 ar
    11    4    5 ar
    12    5    6 ar
    13    5   48 1
    14    6    7 ar
    15    7   13 ar
    16    7    8 ar
    17    8    9 ar
    18    8   10 ar
    19   10   11 ar
    20   10   15 1
    21   11   12 ar
    22   12   13 ar
    23   12   14 1
    24   14   49 1
    25   14   50 1
    26   15   51 1
    27   15   52 1
    28   16   21 ar
    29   16   17 ar
    30   17   18 ar
    31   17   53 1
    32   18   19 ar
    33   18   54 1
    34   19   20 ar
    35   19   22 1
    36   20   21 ar
    37   20   55 1
    38   21   56 1
    39   22   23 2
    40   22   24 am
    41   24   25 1
    42   24   57 1
    43   25   26 1
    44   25   40 1
    45   25   58 1
    46   26   27 1
    47   26   59 1
    48   26   60 1
    49   27   28 1
    50   27   61 1
    51   27   62 1
    52   28   29 2
    53   28   30 am
    54   30   31 1
    55   30   63 1
    56   31   36 ar
    57   31   32 ar
    58   32   33 ar
    59   32   64 1
    60   33   34 ar
    61   33   65 1
    62   34   39 1
    63   34   35 ar
    64   35   36 ar
    65   35   37 1
    66   36   66 1
    67   37   38 1
    68   38   39 1
    69   38   67 1
    70   38   68 1
    71   40   41 2
    72   40   42 1
@<TRIPOS>MOLECULE
CHEMBL46294
   51    53     0     0     0
SMALL
USER_CHARGES

@<TRIPOS>ATOM
      1 C1         -0.0169    1.3937    0.0097 C.ar      1 <0>        -0.0164
      2 C2          1.1662    2.0965    0.0022 C.ar      1 <0>        -0.2054
      3 C3          2.3811    1.4169   -0.0131 C.ar      1 <0>         0.2272
      4 C4          2.4034    0.0249   -0.0208 C.ar      1 <0>        -0.2094
      5 C5          1.2237   -0.6836   -0.0138 C.ar      1 <0>        -0.0364
      6 C6          0.0021   -0.0041    0.0020 C.ar      1 <0>        -0.1686
      7 C7         -1.2644   -0.7605    0.0105 C.2       1 <0>         0.5574
      8 O1         -2.3263   -0.1682    0.0243 O.2       1 <0>        -0.5630
      9 N1         -1.2445   -2.1081    0.0031 N.am      1 <0>        -0.6807
     10 C8         -2.5022   -2.8593    0.0116 C.3       1 <0>         0.0736
     11 H1         -3.2516   -2.3197   -0.5676 H         1 <0>         0.0765
     12 C9         -2.2758   -4.2399   -0.6078 C.3       1 <0>        -0.0798
     13 C10        -1.9084   -4.0824   -2.0846 C.3       1 <0>        -0.1776
     14 C11        -1.6854   -5.4422   -2.6946 C.2       1 <0>         0.4911
     15 O2         -1.8089   -6.4445   -2.0115 O.co2     1 <0>        -0.6978
     16 O3         -1.3815   -5.5401   -3.8713 O.co2     1 <0>        -0.7213
     17 C12        -2.9829   -3.0182    1.4310 C.2       1 <0>         0.4953
     18 O4         -2.3350   -2.5475    2.3503 O.co2     1 <0>        -0.6965
     19 O5         -4.0198   -3.6173    1.6600 O.co2     1 <0>        -0.7029
     20 N2          3.5749    2.1299   -0.0211 N.pl3     1 <0>        -0.7371
     21 C13         4.8542    1.4162   -0.0371 C.3       1 <0>         0.1824
     22 C14         5.9850    2.4124   -0.0431 C.2       1 <0>         0.0759
     23 N3          5.7149    3.6712   -0.0288 N.2       1 <0>        -0.3922
     24 C15         6.6955    4.6167   -0.0661 C.2       1 <0>        -0.2043
     25 C16         8.0083    4.2519   -0.3970 C.2       1 <0>         0.4594
     26 N4          8.9690    5.1726   -0.4224 N.2       1 <0>        -0.6110
     27 C17         8.7025    6.4370   -0.1587 C.2       1 <0>         0.6700
     28 N5          7.4443    6.8557    0.1472 N.am      1 <0>        -0.6582
     29 C18         6.4224    5.9734    0.1981 C.2       1 <0>         0.5743
     30 O6          5.2907    6.3424    0.4657 O.2       1 <0>        -0.5074
     31 N6          9.7192    7.3531   -0.1931 N.pl3     1 <0>        -0.8144
     32 N7          8.2631    2.9275   -0.6998 N.pl3     1 <0>        -0.7016
     33 C19         7.4068    1.9127   -0.0595 C.3       1 <0>         0.1337
     34 H2         -0.9590    1.9215    0.0260 H         1 <0>         0.1313
     35 H3          1.1522    3.1764    0.0078 H         1 <0>         0.1198
     36 H4          3.3474   -0.4995   -0.0326 H         1 <0>         0.1214
     37 H5          1.2416   -1.7634   -0.0204 H         1 <0>         0.1261
     38 H6         -0.3974   -2.5806   -0.0078 H         1 <0>         0.3877
     39 H7         -1.4645   -4.7448   -0.0833 H         1 <0>         0.0542
     40 H8         -3.1876   -4.8309   -0.5212 H         1 <0>         0.0775
     41 H9         -2.7197   -3.5775   -2.6090 H         1 <0>         0.0518
     42 H10        -0.9966   -3.4914   -2.1711 H         1 <0>         0.0510
     43 H11         3.5606    3.0997   -0.0161 H         1 <0>         0.4128
     44 H12         4.9299    0.7860    0.8490 H         1 <0>         0.0821
     45 H13         4.9126    0.7950   -0.9309 H         1 <0>         0.0798
     46 H14        10.6211    7.0688   -0.4094 H         1 <0>         0.4300
     47 H15         9.5378    8.2865   -0.0013 H         1 <0>         0.4176
     48 H16         8.9777    2.6771   -1.3060 H         1 <0>         0.4168
     49 H17         7.7437    1.7385    0.9624 H         1 <0>         0.0803
     50 H18         7.4598    0.9828   -0.6256 H         1 <0>         0.1098
     51 H19         7.2801    7.7941    0.3301 H         1 <0>         0.4148
@<TRIPOS>BOND
     1    1    6 ar
     2    1    2 ar
     3    1   34 1
     4    2    3 ar
     5    2   35 1
     6    3    4 ar
     7    3   20 1
     8    4    5 ar
     9    4   36 1
    10    5    6 ar
    11    5   37 1
    12    6    7 1
    13    7    8 2
    14    7    9 am
    15    9   10 1
    16    9   38 1
    17   10   11 1
    18   10   12 1
    19   10   17 1
    20   12   13 1
    21   12   39 1
    22   12   40 1
    23   13   14 1
    24   13   41 1
    25   13   42 1
    26   14   15 2
    27   14   16 1
    28   17   18 2
    29   17   19 1
    30   20   21 1
    31   20   43 1
    32   21   22 1
    33   21   44 1
    34   21   45 1
    35   22   33 1
    36   22   23 2
    37   23   24 1
    38   24   29 1
    39   24   25 2
    40   25   26 1
    41   25   32 1
    42   26   27 2
    43   27   28 1
    44   27   31 1
    45   28   29 am
    46   28   51 1
    47   29   30 2
    48   31   46 1
    49   31   47 1
    50   32   33 1
    51   32   48 1
    52   33   49 1
    53   33   50 1
@<TRIPOS>MOLECULE
CHEMBL296525
   54    55     0     0     0
SMALL
USER_CHARGES

@<TRIPOS>ATOM
      1 C1          0.4940    1.1464   -0.2451 C.3       1 <0>         0.0269
      2 O1          0.4301   -0.2754   -0.1172 O.3       1 <0>        -0.3010
      3 C2         -0.7992   -0.8483   -0.2065 C.ar      1 <0>         0.1936
      4 C3         -1.9200   -0.0580   -0.4187 C.ar      1 <0>        -0.2433
      5 C4         -3.1700   -0.6397   -0.5090 C.ar      1 <0>         0.0137
      6 C5         -3.3078   -2.0096   -0.3888 C.ar      1 <0>        -0.2411
      7 C6         -2.1907   -2.8045   -0.1766 C.ar      1 <0>         0.2115
      8 C7         -0.9339   -2.2237   -0.0912 C.ar      1 <0>        -0.1721
      9 Br1         0.5921   -3.3047    0.1896 Br        1 <0>        -0.0255
     10 O2         -2.3270   -4.1516   -0.0580 O.3       1 <0>        -0.2901
     11 C8         -3.6501   -4.6814   -0.1622 C.3       1 <0>         0.0610
     12 C9         -3.6041   -6.2026   -0.0046 C.3       1 <0>        -0.1131
     13 C10        -5.0206   -6.7699   -0.1161 C.3       1 <0>        -0.0862
     14 C11        -4.9612   -8.2986   -0.0915 C.3       1 <0>        -0.1593
     15 C12        -6.3619   -8.8673   -0.3271 C.3       1 <0>        -0.0641
     16 C13        -6.2808  -10.3906   -0.4447 C.3       1 <0>        -0.1752
     17 C14        -7.6391  -10.9404   -0.7964 C.2       1 <0>         0.4934
     18 O3         -8.5845  -10.1839   -0.9398 O.co2     1 <0>        -0.7074
     19 O4         -7.7927  -12.1416   -0.9376 O.co2     1 <0>        -0.7205
     20 C15        -4.4507   -8.7600    1.2492 C.2       1 <0>         0.5081
     21 O5         -5.0276   -8.4244    2.2695 O.co2     1 <0>        -0.7049
     22 O6         -3.4608   -9.4688    1.3135 O.co2     1 <0>        -0.7107
     23 C16        -4.3854    0.2212   -0.7385 C.3       1 <0>        -0.0181
     24 C17        -4.6241    0.3688   -2.2191 C.ar      1 <0>        -0.3055
     25 C18        -4.1285    1.4577   -2.9094 C.ar      1 <0>         0.2213
     26 N1         -4.3553    1.5581   -4.2109 N.ar      1 <0>        -0.6105
     27 C19        -5.0486    0.6306   -4.8549 C.ar      1 <0>         0.6009
     28 N2         -5.5410   -0.4280   -4.2298 N.ar      1 <0>        -0.6251
     29 C20        -5.3465   -0.5952   -2.9255 C.ar      1 <0>         0.4927
     30 N3         -5.8578   -1.7065   -2.2754 N.pl3     1 <0>        -0.8299
     31 N4         -5.2639    0.7719   -6.2147 N.pl3     1 <0>        -0.8238
     32 H1          1.5300    1.4731   -0.1550 H         1 <0>         0.1003
     33 H2          0.1034    1.4415   -1.2190 H         1 <0>         0.0570
     34 H3         -0.1026    1.6092    0.5410 H         1 <0>         0.0575
     35 H4         -1.8151    1.0127   -0.5129 H         1 <0>         0.1338
     36 H5         -4.2860   -2.4617   -0.4598 H         1 <0>         0.1325
     37 H6         -4.2755   -4.2537    0.6214 H         1 <0>         0.0655
     38 H7         -4.0666   -4.4297   -1.1375 H         1 <0>         0.0611
     39 H8         -2.9787   -6.6304   -0.7881 H         1 <0>         0.0688
     40 H9         -3.1876   -6.4544    0.9707 H         1 <0>         0.0799
     41 H10        -5.6208   -6.4161    0.7222 H         1 <0>         0.0661
     42 H11        -5.4721   -6.4388   -1.0513 H         1 <0>         0.0458
     43 H12        -4.2902   -8.6487   -0.8759 H         1 <0>         0.0530
     44 H13        -7.0076   -8.6013    0.5098 H         1 <0>         0.0561
     45 H14        -6.7720   -8.4531   -1.2483 H         1 <0>         0.0423
     46 H15        -5.5677  -10.6573   -1.2247 H         1 <0>         0.0479
     47 H16        -5.9535  -10.8114    0.5061 H         1 <0>         0.0592
     48 H17        -5.2543   -0.2460   -0.2751 H         1 <0>         0.0801
     49 H18        -4.2228    1.2044   -0.2969 H         1 <0>         0.0890
     50 H19        -3.5626    2.2193   -2.3937 H         1 <0>         0.1610
     51 H20        -5.7151   -1.8194   -1.3226 H         1 <0>         0.4112
     52 H21        -6.3585   -2.3718   -2.7729 H         1 <0>         0.4110
     53 H22        -4.9089    1.5428   -6.6844 H         1 <0>         0.4124
     54 H23        -5.7698    0.1001   -6.6980 H         1 <0>         0.4128
@<TRIPOS>BOND
     1    1    2 1
     2    1   32 1
     3    1   33 1
     4    1   34 1
     5    2    3 1
     6    3    8 ar
     7    3    4 ar
     8    4    5 ar
     9    4   35 1
    10    5    6 ar
    11    5   23 1
    12    6    7 ar
    13    6   36 1
    14    7    8 ar
    15    7   10 1
    16    8    9 1
    17   10   11 1
    18   11   12 1
    19   11   37 1
    20   11   38 1
    21   12   13 1
    22   12   39 1
    23   12   40 1
    24   13   14 1
    25   13   41 1
    26   13   42 1
    27   14   15 1
    28   14   20 1
    29   14   43 1
    30   15   16 1
    31   15   44 1
    32   15   45 1
    33   16   17 1
    34   16   46 1
    35   16   47 1
    36   17   18 2
    37   17   19 1
    38   20   21 2
    39   20   22 1
    40   23   24 1
    41   23   48 1
    42   23   49 1
    43   24   29 ar
    44   24   25 ar
    45   25   26 ar
    46   25   50 1
    47   26   27 ar
    48   27   28 ar
    49   27   31 1
    50   28   29 ar
    51   29   30 1
    52   30   51 1
    53   30   52 1
    54   31   53 1
    55   31   54 1
@<TRIPOS>MOLECULE
CHEMBL296525__1
   55    56     0     0     0
SMALL
USER_CHARGES

@<TRIPOS>ATOM
      1 C1         -0.0173    1.4248    0.0099 C.3       1 <0>         0.0264
      2 O1          0.0021   -0.0041    0.0020 O.3       1 <0>        -0.2957
      3 C2         -1.2004   -0.6375    0.0101 C.ar      1 <0>         0.1999
      4 C3         -2.3748    0.1018    0.0195 C.ar      1 <0>        -0.2452
      5 C4         -3.5975   -0.5415    0.0283 C.ar      1 <0>        -0.0107
      6 C5         -3.6547   -1.9224    0.0271 C.ar      1 <0>        -0.2444
      7 C6         -2.4839   -2.6665    0.0177 C.ar      1 <0>         0.2190
      8 C7         -1.2549   -2.0232    0.0032 C.ar      1 <0>        -0.1672
      9 Br1         0.3431   -3.0339   -0.0182 Br        1 <0>        -0.0076
     10 O2         -2.5408   -4.0244    0.0171 O.3       1 <0>        -0.2840
     11 C8         -3.8401   -4.6192    0.0265 C.3       1 <0>         0.0609
     12 C9         -3.7034   -6.1431    0.0243 C.3       1 <0>        -0.1168
     13 C10        -5.0946   -6.7799    0.0344 C.3       1 <0>        -0.0846
     14 C11        -4.9579   -8.3038    0.0322 C.3       1 <0>        -0.1607
     15 C12        -6.3445   -8.9401   -0.0836 C.3       1 <0>        -0.0628
     16 C13        -6.2001  -10.4579   -0.2112 C.3       1 <0>        -0.1769
     17 C14        -7.5659  -11.0846   -0.3252 C.2       1 <0>         0.4935
     18 O3         -8.5624  -10.3823   -0.3061 O.co2     1 <0>        -0.7089
     19 O4         -7.6744  -12.2938   -0.4365 O.co2     1 <0>        -0.7170
     20 C15        -4.3052   -8.7515    1.3146 C.2       1 <0>         0.5063
     21 O5         -4.8329   -8.5046    2.3857 O.co2     1 <0>        -0.7025
     22 O6         -3.2495   -9.3605    1.2811 O.co2     1 <0>        -0.7084
     23 C16        -4.8711    0.2640    0.0395 C.3       1 <0>        -0.0323
     24 C17        -5.3069    0.5346   -1.3775 C.ar      1 <0>        -0.2157
     25 C18        -4.9563    1.7104   -2.0119 C.ar      1 <0>         0.2022
     26 N1         -5.3547    1.9181   -3.2583 N.ar      1 <0>        -0.5724
     27 C19        -6.0823    1.0158   -3.9001 C.ar      1 <0>         0.6607
     28 N2         -6.4397   -0.1237   -3.3273 N.ar      1 <0>        -0.5704
     29 C20        -6.0693   -0.4002   -2.0810 C.ar      1 <0>         0.5359
     30 N3         -6.4396   -1.5954   -1.4865 N.pl3     1 <0>        -0.7681
     31 N4         -6.4792    1.2704   -5.2012 N.pl3     1 <0>        -0.7953
     32 H1          1.0053    1.8021    0.0021 H         1 <0>         0.1056
     33 H2         -0.5445    1.7859   -0.8732 H         1 <0>         0.0536
     34 H3         -0.5275    1.7763    0.9067 H         1 <0>         0.0602
     35 H4         -2.3329    1.1810    0.0204 H         1 <0>         0.1355
     36 H5         -4.6118   -2.4227    0.0340 H         1 <0>         0.1312
     37 H6         -4.3776   -4.3039    0.9208 H         1 <0>         0.0687
     38 H7         -4.3911   -4.3026   -0.8591 H         1 <0>         0.0581
     39 H8         -3.1660   -6.4584   -0.8700 H         1 <0>         0.0705
     40 H9         -3.1525   -6.4597    0.9099 H         1 <0>         0.0851
     41 H10        -5.6321   -6.4646    0.9287 H         1 <0>         0.0657
     42 H11        -5.6455   -6.4633   -0.8512 H         1 <0>         0.0442
     43 H12        -4.3447   -8.6124   -0.8146 H         1 <0>         0.0535
     44 H13        -6.9279   -8.7042    0.8064 H         1 <0>         0.0593
     45 H14        -6.8518   -8.5479   -0.9650 H         1 <0>         0.0381
     46 H15        -5.6167  -10.6938   -1.1012 H         1 <0>         0.0469
     47 H16        -5.6928  -10.8500    0.6703 H         1 <0>         0.0615
     48 H17        -5.6498   -0.2947    0.5587 H         1 <0>         0.1022
     49 H18        -4.6984    1.2096    0.5534 H         1 <0>         0.1122
     50 H19        -4.3641    2.4527   -1.4974 H         1 <0>         0.2127
     51 H20        -6.1692   -1.7880   -0.5750 H         1 <0>         0.4313
     52 H21        -6.9693   -2.2397   -1.9816 H         1 <0>         0.4332
     53 H22        -6.2245    2.1013   -5.6321 H         1 <0>         0.4279
     54 H23        -7.0121    0.6181   -5.6822 H         1 <0>         0.4446
     55 H24        -5.1106    2.7426   -3.7072 H         1 <0>         0.4416
@<TRIPOS>BOND
     1    1    2 1
     2    1   32 1
     3    1   33 1
     4    1   34 1
     5    2    3 1
     6    3    8 ar
     7    3    4 ar
     8    4    5 ar
     9    4   35 1
    10    5    6 ar
    11    5   23 1
    12    6    7 ar
    13    6   36 1
    14    7    8 ar
    15    7   10 1
    16    8    9 1
    17   10   11 1
    18   11   12 1
    19   11   37 1
    20   11   38 1
    21   12   13 1
    22   12   39 1
    23   12   40 1
    24   13   14 1
    25   13   41 1
    26   13   42 1
    27   14   15 1
    28   14   20 1
    29   14   43 1
    30   15   16 1
    31   15   44 1
    32   15   45 1
    33   16   17 1
    34   16   46 1
    35   16   47 1
    36   17   18 2
    37   17   19 1
    38   20   21 2
    39   20   22 1
    40   23   24 1
    41   23   48 1
    42   23   49 1
    43   24   29 ar
    44   24   25 ar
    45   25   26 ar
    46   25   50 1
    47   26   27 ar
    48   26   55 1
    49   27   28 ar
    50   27   31 1
    51   28   29 ar
    52   29   30 1
    53   30   51 1
    54   30   52 1
    55   31   53 1
    56   31   54 1
@<TRIPOS>MOLECULE
CHEMBL296525__2
   54    55     0     0     0
SMALL
USER_CHARGES

@<TRIPOS>ATOM
      1 C1         -0.0173    1.4248    0.0099 C.3       1 <0>         0.0269
      2 O1          0.0021   -0.0041    0.0020 O.3       1 <0>        -0.3010
      3 C2         -1.2004   -0.6375    0.0101 C.ar      1 <0>         0.1935
      4 C3         -2.3748    0.1018    0.0195 C.ar      1 <0>        -0.2434
      5 C4         -3.5975   -0.5415    0.0283 C.ar      1 <0>         0.0137
      6 C5         -3.6547   -1.9224    0.0271 C.ar      1 <0>        -0.2412
      7 C6         -2.4839   -2.6665    0.0177 C.ar      1 <0>         0.2115
      8 C7         -1.2549   -2.0232    0.0032 C.ar      1 <0>        -0.1722
      9 Br1         0.3431   -3.0339   -0.0182 Br        1 <0>        -0.0256
     10 O2         -2.5408   -4.0244    0.0171 O.3       1 <0>        -0.2900
     11 C8         -3.8401   -4.6192    0.0265 C.3       1 <0>         0.0609
     12 C9         -3.7034   -6.1431    0.0243 C.3       1 <0>        -0.1135
     13 C10        -5.0946   -6.7799    0.0344 C.3       1 <0>        -0.0863
     14 C11        -4.9579   -8.3038    0.0322 C.3       1 <0>        -0.1594
     15 C12        -6.3426   -8.9403    0.1679 C.3       1 <0>        -0.0638
     16 C13        -6.1963  -10.4583    0.2910 C.3       1 <0>        -0.1757
     17 C14        -7.5602  -11.0851    0.4247 C.2       1 <0>         0.4938
     18 O3         -8.5569  -10.3829    0.4218 O.co2     1 <0>        -0.7071
     19 O4         -7.6670  -12.2946    0.5358 O.co2     1 <0>        -0.7210
     20 C15        -4.3247   -8.7495   -1.2607 C.2       1 <0>         0.5077
     21 O5         -3.2687   -9.3586   -1.2441 O.co2     1 <0>        -0.7116
     22 O6         -4.8685   -8.5010   -2.3233 O.co2     1 <0>        -0.7032
     23 C16        -4.8711    0.2640    0.0395 C.3       1 <0>        -0.0171
     24 C17        -5.3069    0.5346   -1.3775 C.ar      1 <0>        -0.3073
     25 C18        -4.9563    1.7104   -2.0119 C.ar      1 <0>         0.2213
     26 N1         -5.3547    1.9181   -3.2583 N.ar      1 <0>        -0.6110
     27 C19        -6.0820    1.0156   -3.9002 C.ar      1 <0>         0.6015
     28 N2         -6.4393   -0.1239   -3.3275 N.ar      1 <0>        -0.6241
     29 C20        -6.0693   -0.4002   -2.0810 C.ar      1 <0>         0.4933
     30 N3         -6.4396   -1.5954   -1.4865 N.pl3     1 <0>        -0.8295
     31 N4         -6.4785    1.2701   -5.2015 N.pl3     1 <0>        -0.8234
     32 H1          1.0053    1.8021    0.0021 H         1 <0>         0.1003
     33 H2         -0.5445    1.7859   -0.8732 H         1 <0>         0.0573
     34 H3         -0.5275    1.7763    0.9067 H         1 <0>         0.0572
     35 H4         -2.3329    1.1810    0.0204 H         1 <0>         0.1338
     36 H5         -4.6118   -2.4227    0.0340 H         1 <0>         0.1325
     37 H6         -4.3776   -4.3039    0.9208 H         1 <0>         0.0623
     38 H7         -4.3911   -4.3026   -0.8591 H         1 <0>         0.0644
     39 H8         -3.1660   -6.4584   -0.8700 H         1 <0>         0.0808
     40 H9         -3.1525   -6.4597    0.9099 H         1 <0>         0.0687
     41 H10        -5.6321   -6.4646    0.9287 H         1 <0>         0.0467
     42 H11        -5.6455   -6.4633   -0.8512 H         1 <0>         0.0649
     43 H12        -4.3320   -8.6137    0.8690 H         1 <0>         0.0529
     44 H13        -6.8365   -8.5495    1.0575 H         1 <0>         0.0393
     45 H14        -6.9394   -8.7030   -0.7128 H         1 <0>         0.0590
     46 H15        -5.7025  -10.8491   -0.5986 H         1 <0>         0.0604
     47 H16        -5.5995  -10.6955    1.1717 H         1 <0>         0.0466
     48 H17        -5.6498   -0.2947    0.5587 H         1 <0>         0.0794
     49 H18        -4.6984    1.2096    0.5534 H         1 <0>         0.0886
     50 H19        -4.3641    2.4527   -1.4974 H         1 <0>         0.1606
     51 H20        -6.1692   -1.7880   -0.5750 H         1 <0>         0.4102
     52 H21        -6.9693   -2.2397   -1.9816 H         1 <0>         0.4121
     53 H22        -6.2237    2.1009   -5.6324 H         1 <0>         0.4123
     54 H23        -7.0111    0.6176   -5.6826 H         1 <0>         0.4132
@<TRIPOS>BOND
     1    1    2 1
     2    1   32 1
     3    1   33 1
     4    1   34 1
     5    2    3 1
     6    3    8 ar
     7    3    4 ar
     8    4    5 ar
     9    4   35 1
    10    5    6 ar
    11    5   23 1
    12    6    7 ar
    13    6   36 1
    14    7    8 ar
    15    7   10 1
    16    8    9 1
    17   10   11 1
    18   11   12 1
    19   11   37 1
    20   11   38 1
    21   12   13 1
    22   12   39 1
    23   12   40 1
    24   13   14 1
    25   13   41 1
    26   13   42 1
    27   14   15 1
    28   14   20 1
    29   14   43 1
    30   15   16 1
    31   15   44 1
    32   15   45 1
    33   16   17 1
    34   16   46 1
    35   16   47 1
    36   17   18 2
    37   17   19 1
    38   20   21 2
    39   20   22 1
    40   23   24 1
    41   23   48 1
    42   23   49 1
    43   24   29 ar
    44   24   25 ar
    45   25   26 ar
    46   25   50 1
    47   26   27 ar
    48   27   28 ar
    49   27   31 1
    50   28   29 ar
    51   29   30 1
    52   30   51 1
    53   30   52 1
    54   31   53 1
    55   31   54 1
@<TRIPOS>MOLECULE
CHEMBL296525__3
   55    56     0     0     0
SMALL
USER_CHARGES

@<TRIPOS>ATOM
      1 C1         -0.0173    1.4248    0.0099 C.3       1 <0>         0.0266
      2 O1          0.0021   -0.0041    0.0020 O.3       1 <0>        -0.2960
      3 C2         -1.2004   -0.6375    0.0101 C.ar      1 <0>         0.1995
      4 C3         -2.3748    0.1018    0.0195 C.ar      1 <0>        -0.2464
      5 C4         -3.5975   -0.5415    0.0283 C.ar      1 <0>        -0.0112
      6 C5         -3.6547   -1.9224    0.0271 C.ar      1 <0>        -0.2446
      7 C6         -2.4839   -2.6665    0.0177 C.ar      1 <0>         0.2201
      8 C7         -1.2549   -2.0232    0.0032 C.ar      1 <0>        -0.1677
      9 Br1         0.3431   -3.0339   -0.0182 Br        1 <0>        -0.0089
     10 O2         -2.5408   -4.0244    0.0171 O.3       1 <0>        -0.2831
     11 C8         -3.8401   -4.6192    0.0265 C.3       1 <0>         0.0632
     12 C9         -3.7034   -6.1431    0.0243 C.3       1 <0>        -0.1236
     13 C10        -5.0946   -6.7799    0.0344 C.3       1 <0>        -0.0756
     14 C11        -4.9579   -8.3038    0.0322 C.3       1 <0>        -0.1625
     15 C12        -6.3426   -8.9403    0.1679 C.3       1 <0>        -0.0584
     16 C13        -6.1963  -10.4583    0.2910 C.3       1 <0>        -0.1872
     17 C14        -7.5602  -11.0851    0.4247 C.2       1 <0>         0.4902
     18 O3         -8.5569  -10.3829    0.4218 O.co2     1 <0>        -0.7163
     19 O4         -7.6670  -12.2946    0.5358 O.co2     1 <0>        -0.7194
     20 C15        -4.3247   -8.7495   -1.2607 C.2       1 <0>         0.5009
     21 O5         -4.0118   -7.9248   -2.1024 O.co2     1 <0>        -0.7128
     22 O6         -4.1254   -9.9348   -1.4650 O.co2     1 <0>        -0.6840
     23 C16        -4.8711    0.2640    0.0395 C.3       1 <0>        -0.0311
     24 C17        -5.3069    0.5346   -1.3775 C.ar      1 <0>        -0.2167
     25 C18        -4.9563    1.7104   -2.0119 C.ar      1 <0>         0.2019
     26 N1         -5.3547    1.9181   -3.2583 N.ar      1 <0>        -0.5728
     27 C19        -6.0823    1.0158   -3.9001 C.ar      1 <0>         0.6610
     28 N2         -6.4397   -0.1237   -3.3273 N.ar      1 <0>        -0.5693
     29 C20        -6.0693   -0.4002   -2.0810 C.ar      1 <0>         0.5361
     30 N3         -6.4396   -1.5954   -1.4865 N.pl3     1 <0>        -0.7671
     31 N4         -6.4792    1.2704   -5.2012 N.pl3     1 <0>        -0.7951
     32 H1          1.0053    1.8021    0.0021 H         1 <0>         0.1053
     33 H2         -0.5445    1.7859   -0.8732 H         1 <0>         0.0537
     34 H3         -0.5275    1.7763    0.9067 H         1 <0>         0.0596
     35 H4         -2.3329    1.1810    0.0204 H         1 <0>         0.1350
     36 H5         -4.6118   -2.4227    0.0340 H         1 <0>         0.1310
     37 H6         -4.3776   -4.3039    0.9208 H         1 <0>         0.0590
     38 H7         -4.3911   -4.3026   -0.8591 H         1 <0>         0.0610
     39 H8         -3.1660   -6.4584   -0.8700 H         1 <0>         0.1105
     40 H9         -3.1525   -6.4597    0.9099 H         1 <0>         0.0601
     41 H10        -5.6321   -6.4646    0.9287 H         1 <0>         0.0375
     42 H11        -5.6455   -6.4633   -0.8512 H         1 <0>         0.0580
     43 H12        -4.3320   -8.6137    0.8690 H         1 <0>         0.0561
     44 H13        -6.8365   -8.5495    1.0575 H         1 <0>         0.0369
     45 H14        -6.9394   -8.7030   -0.7128 H         1 <0>         0.0450
     46 H15        -5.7025  -10.8491   -0.5986 H         1 <0>         0.0972
     47 H16        -5.5995  -10.6955    1.1717 H         1 <0>         0.0414
     48 H17        -5.6498   -0.2947    0.5587 H         1 <0>         0.1012
     49 H18        -4.6984    1.2096    0.5534 H         1 <0>         0.1114
     50 H19        -4.3641    2.4527   -1.4974 H         1 <0>         0.2122
     51 H20        -6.1692   -1.7880   -0.5750 H         1 <0>         0.4303
     52 H21        -6.9693   -2.2397   -1.9816 H         1 <0>         0.4342
     53 H22        -6.2245    2.1013   -5.6321 H         1 <0>         0.4276
     54 H23        -7.0121    0.6181   -5.6822 H         1 <0>         0.4449
     55 H24        -5.1106    2.7426   -3.7072 H         1 <0>         0.4413
@<TRIPOS>BOND
     1    1    2 1
     2    1   32 1
     3    1   33 1
     4    1   34 1
     5    2    3 1
     6    3    8 ar
     7    3    4 ar
     8    4    5 ar
     9    4   35 1
    10    5    6 ar
    11    5   23 1
    12    6    7 ar
    13    6   36 1
    14    7    8 ar
    15    7   10 1
    16    8    9 1
    17   10   11 1
    18   11   12 1
    19   11   37 1
    20   11   38 1
    21   12   13 1
    22   12   39 1
    23   12   40 1
    24   13   14 1
    25   13   41 1
    26   13   42 1
    27   14   15 1
    28   14   20 1
    29   14   43 1
    30   15   16 1
    31   15   44 1
    32   15   45 1
    33   16   17 1
    34   16   46 1
    35   16   47 1
    36   17   18 2
    37   17   19 1
    38   20   21 2
    39   20   22 1
    40   23   24 1
    41   23   48 1
    42   23   49 1
    43   24   29 ar
    44   24   25 ar
    45   25   26 ar
    46   25   50 1
    47   26   27 ar
    48   26   55 1
    49   27   28 ar
    50   27   31 1
    51   28   29 ar
    52   29   30 1
    53   30   51 1
    54   30   52 1
    55   31   53 1
    56   31   54 1
@<TRIPOS>MOLECULE
CHEMBL7375
   46    48     0     0     0
SMALL
USER_CHARGES

@<TRIPOS>ATOM
      1 C1         -0.0173    1.4248    0.0099 C.3       1 <0>         0.0256
      2 O1          0.0021   -0.0041    0.0020 O.3       1 <0>        -0.3178
      3 C2          0.6262   -0.6187    1.0421 C.ar      1 <0>         0.0962
      4 C3          1.2022    0.1391    2.0511 C.ar      1 <0>        -0.1680
      5 C4          1.8365   -0.4851    3.1073 C.ar      1 <0>        -0.1624
      6 C5          1.8971   -1.8700    3.1593 C.ar      1 <0>         0.0957
      7 C6          1.3209   -2.6277    2.1508 C.ar      1 <0>        -0.0813
      8 C7          0.6819   -2.0033    1.0970 C.ar      1 <0>        -0.1194
      9 C8          1.3867   -4.1322    2.2073 C.3       1 <0>        -0.0661
     10 C9          0.2338   -4.6614    3.0627 C.3       1 <0>        -0.0808
     11 C10         0.3538   -6.1832    3.2045 C.3       1 <0>        -0.1152
     12 C11        -0.6615   -6.6543    4.2448 C.3       1 <0>        -0.1007
     13 C12        -2.0292   -6.1128    3.9284 C.ar      1 <0>         0.2381
     14 C13        -2.2264   -5.0495    3.0818 C.ar      1 <0>        -0.2172
     15 C14        -3.5366   -4.6100    2.8533 C.ar      1 <0>         0.5302
     16 N1         -4.5437   -5.2328    3.4542 N.ar      1 <0>        -0.5778
     17 C15        -4.3130   -6.2578    4.2605 C.ar      1 <0>         0.6649
     18 N2         -3.0852   -6.6910    4.4954 N.ar      1 <0>        -0.5760
     19 N3         -5.3812   -6.8903    4.8722 N.pl3     1 <0>        -0.7940
     20 N4         -3.7789   -3.5376    2.0105 N.pl3     1 <0>        -0.7774
     21 C16        -1.0978   -4.3422    2.3842 C.3       1 <0>        -0.0733
     22 O2          2.5220   -2.4847    4.1989 O.3       1 <0>        -0.3144
     23 C17         3.0937   -1.6424    5.2018 C.3       1 <0>         0.0251
     24 H1          1.0053    1.8021    0.0021 H         1 <0>         0.0576
     25 H2         -0.5445    1.7859   -0.8732 H         1 <0>         0.1038
     26 H3         -0.5275    1.7763    0.9067 H         1 <0>         0.0554
     27 H4          1.1550    1.2173    2.0106 H         1 <0>         0.1326
     28 H5          2.2856    0.1049    3.8925 H         1 <0>         0.1329
     29 H6          0.2295   -2.5934    0.3137 H         1 <0>         0.1369
     30 H7          1.3065   -4.5375    1.1986 H         1 <0>         0.0804
     31 H8          2.3359   -4.4380    2.6474 H         1 <0>         0.0904
     32 H9          0.2643   -4.1950    4.0475 H         1 <0>         0.0882
     33 H10         0.1434   -6.6581    2.2462 H         1 <0>         0.0822
     34 H11         1.3606   -6.4424    3.5318 H         1 <0>         0.0988
     35 H12        -0.6967   -7.7438    4.2462 H         1 <0>         0.1102
     36 H13        -0.3551   -6.3055    5.2310 H         1 <0>         0.1192
     37 H14        -6.2861   -6.5817    4.7082 H         1 <0>         0.4443
     38 H15        -5.2251   -7.6421    5.4649 H         1 <0>         0.4297
     39 H16        -3.0390   -3.0865    1.5747 H         1 <0>         0.4323
     40 H17        -4.6884   -3.2378    1.8562 H         1 <0>         0.4278
     41 H18        -1.2708   -3.2666    2.4183 H         1 <0>         0.0910
     42 H19        -1.0585   -4.6649    1.3438 H         1 <0>         0.0979
     43 H20         3.8458   -0.9966    4.7485 H         1 <0>         0.0573
     44 H21         2.3118   -1.0299    5.6508 H         1 <0>         0.0545
     45 H22         3.5596   -2.2582    5.9711 H         1 <0>         0.1028
     46 H23        -2.9522   -7.4442    5.0920 H         1 <0>         0.4399
@<TRIPOS>BOND
     1    1    2 1
     2    1   24 1
     3    1   25 1
     4    1   26 1
     5    2    3 1
     6    3    8 ar
     7    3    4 ar
     8    4    5 ar
     9    4   27 1
    10    5    6 ar
    11    5   28 1
    12    6    7 ar
    13    6   22 1
    14    7    8 ar
    15    7    9 1
    16    8   29 1
    17    9   10 1
    18    9   30 1
    19    9   31 1
    20   10   21 1
    21   10   11 1
    22   10   32 1
    23   11   12 1
    24   11   33 1
    25   11   34 1
    26   12   13 1
    27   12   35 1
    28   12   36 1
    29   13   18 ar
    30   13   14 ar
    31   14   15 ar
    32   14   21 1
    33   15   16 ar
    34   15   20 1
    35   16   17 ar
    36   17   18 ar
    37   17   19 1
    38   18   46 1
    39   19   37 1
    40   19   38 1
    41   20   39 1
    42   20   40 1
    43   21   41 1
    44   21   42 1
    45   22   23 1
    46   23   43 1
    47   23   44 1
    48   23   45 1
@<TRIPOS>MOLECULE
CHEMBL7375__1
   46    48     0     0     0
SMALL
USER_CHARGES

@<TRIPOS>ATOM
      1 C1         -0.0173    1.4248    0.0099 C.3       1 <0>         0.0258
      2 O1          0.0021   -0.0041    0.0020 O.3       1 <0>        -0.3158
      3 C2          0.6262   -0.6187    1.0421 C.ar      1 <0>         0.1031
      4 C3          1.2022    0.1391    2.0511 C.ar      1 <0>        -0.1706
      5 C4          1.8365   -0.4851    3.1073 C.ar      1 <0>        -0.1623
      6 C5          1.8971   -1.8700    3.1593 C.ar      1 <0>         0.0843
      7 C6          1.3209   -2.6277    2.1508 C.ar      1 <0>        -0.0775
      8 C7          0.6819   -2.0033    1.0970 C.ar      1 <0>        -0.1125
      9 C8          1.3867   -4.1322    2.2073 C.3       1 <0>        -0.0673
     10 C9          0.2338   -4.6614    3.0627 C.3       1 <0>        -0.0817
     11 C10         0.2384   -6.1944    3.0422 C.3       1 <0>        -0.1157
     12 C11        -1.0466   -6.6916    3.7027 C.3       1 <0>        -0.1005
     13 C12        -1.2367   -6.0362    5.0438 C.ar      1 <0>         0.2352
     14 C13        -0.5738   -4.8898    5.4078 C.ar      1 <0>        -0.2162
     15 C14        -0.8211   -4.3476    6.6754 C.ar      1 <0>         0.5303
     16 N1         -1.6800   -4.9560    7.4848 N.ar      1 <0>        -0.5776
     17 C15        -2.2964   -6.0629    7.0988 C.ar      1 <0>         0.6642
     18 N2         -2.0828   -6.5941    5.9062 N.ar      1 <0>        -0.5752
     19 N3         -3.1845   -6.6786    7.9636 N.pl3     1 <0>        -0.7942
     20 N4         -0.1766   -3.1901    7.0801 N.pl3     1 <0>        -0.7795
     21 C16         0.4109   -4.1964    4.5077 C.3       1 <0>        -0.0673
     22 O2          2.5220   -2.4847    4.1989 O.3       1 <0>        -0.3171
     23 C17         3.0937   -1.6424    5.2018 C.3       1 <0>         0.0181
     24 H1          1.0053    1.8021    0.0021 H         1 <0>         0.0574
     25 H2         -0.5445    1.7859   -0.8732 H         1 <0>         0.1045
     26 H3         -0.5275    1.7763    0.9067 H         1 <0>         0.0556
     27 H4          1.1550    1.2173    2.0106 H         1 <0>         0.1329
     28 H5          2.2856    0.1049    3.8925 H         1 <0>         0.1323
     29 H6          0.2295   -2.5934    0.3137 H         1 <0>         0.1394
     30 H7          1.3065   -4.5375    1.1986 H         1 <0>         0.0849
     31 H8          2.3359   -4.4380    2.6474 H         1 <0>         0.0869
     32 H9         -0.7132   -4.2895    2.6716 H         1 <0>         0.0848
     33 H10         0.2805   -6.5467    2.0116 H         1 <0>         0.0982
     34 H11         1.1016   -6.5655    3.5948 H         1 <0>         0.0830
     35 H12        -1.8960   -6.4544    3.0621 H         1 <0>         0.1191
     36 H13        -0.9892   -7.7720    3.8345 H         1 <0>         0.1102
     37 H14        -3.3492   -6.2989    8.8408 H         1 <0>         0.4441
     38 H15        -3.6421   -7.4897    7.6924 H         1 <0>         0.4297
     39 H16         0.4500   -2.7503    6.4845 H         1 <0>         0.4304
     40 H17        -0.3520   -2.8193    7.9592 H         1 <0>         0.4271
     41 H18         1.4241   -4.4250    4.8381 H         1 <0>         0.1061
     42 H19         0.2520   -3.1194    4.5616 H         1 <0>         0.0881
     43 H20         3.8458   -0.9966    4.7485 H         1 <0>         0.0610
     44 H21         2.3118   -1.0299    5.6508 H         1 <0>         0.0522
     45 H22         3.5596   -2.2582    5.9711 H         1 <0>         0.1023
     46 H23        -2.5518   -7.4055    5.6556 H         1 <0>         0.4399
@<TRIPOS>BOND
     1    1    2 1
     2    1   24 1
     3    1   25 1
     4    1   26 1
     5    2    3 1
     6    3    8 ar
     7    3    4 ar
     8    4    5 ar
     9    4   27 1
    10    5    6 ar
    11    5   28 1
    12    6    7 ar
    13    6   22 1
    14    7    8 ar
    15    7    9 1
    16    8   29 1
    17    9   10 1
    18    9   30 1
    19    9   31 1
    20   10   21 1
    21   10   11 1
    22   10   32 1
    23   11   12 1
    24   11   33 1
    25   11   34 1
    26   12   13 1
    27   12   35 1
    28   12   36 1
    29   13   18 ar
    30   13   14 ar
    31   14   15 ar
    32   14   21 1
    33   15   16 ar
    34   15   20 1
    35   16   17 ar
    36   17   18 ar
    37   17   19 1
    38   18   46 1
    39   19   37 1
    40   19   38 1
    41   20   39 1
    42   20   40 1
    43   21   41 1
    44   21   42 1
    45   22   23 1
    46   23   43 1
    47   23   44 1
    48   23   45 1
@<TRIPOS>MOLECULE
CHEMBL422316
   59    62     0     0     0
SMALL
USER_CHARGES

@<TRIPOS>ATOM
      1 C1         -0.0167    1.3794    0.0096 C.ar      1 <0>        -0.1046
      2 C2          1.1667    2.0884    0.0021 C.ar      1 <0>        -0.0654
      3 C3          2.3848    1.4070   -0.0132 C.ar      1 <0>        -0.0973
      4 C4          2.3966    0.0113   -0.0208 C.ar      1 <0>        -0.0863
      5 C5          1.2061   -0.6856   -0.0132 C.ar      1 <0>        -0.1256
      6 C6          0.0021   -0.0041    0.0020 C.ar      1 <0>        -0.0867
      7 C7         -1.2946   -0.7719    0.0103 C.3       1 <0>         0.0997
      8 N1         -1.7292   -1.0140   -1.3719 N.3       1 <0>        -0.5277
      9 C8         -3.0910   -1.5701   -1.4068 C.3       1 <0>         0.0452
     10 C9         -3.6284   -1.4519   -2.8327 C.3       1 <0>        -0.0768
     11 C10        -2.6302   -2.0264   -3.8088 C.ar      1 <0>         0.2618
     12 C11        -1.3070   -2.2317   -3.4464 C.ar      1 <0>        -0.1210
     13 C12        -0.4203   -2.7503   -4.3591 C.ar      1 <0>         0.0141
     14 C13        -0.8880   -3.0627   -5.6388 C.ar      1 <0>        -0.2426
     15 C14        -0.0464   -3.6015   -6.6428 C.ar      1 <0>         0.5715
     16 N2         -0.5759   -3.8698   -7.8280 N.ar      1 <0>        -0.5971
     17 C15        -1.8622   -3.6423   -8.0771 C.ar      1 <0>         0.7045
     18 N3         -2.6880   -3.1407   -7.1781 N.ar      1 <0>        -0.5780
     19 C16        -2.2516   -2.8347   -5.9478 C.ar      1 <0>         0.4001
     20 N4         -3.0602   -2.3267   -5.0213 N.ar      1 <0>        -0.5047
     21 N5         -2.3556   -3.9437   -9.3321 N.pl3     1 <0>        -0.7874
     22 N6          1.2872   -3.8408   -6.3938 N.pl3     1 <0>        -0.7575
     23 C17        -0.7982   -1.9090   -2.0664 C.3       1 <0>         0.0819
     24 C18         3.6569    2.1603   -0.0218 C.2       1 <0>         0.5381
     25 O1          3.6435    3.3757   -0.0155 O.2       1 <0>        -0.5479
     26 N7          4.8314    1.4994   -0.0366 N.am      1 <0>        -0.6727
     27 C19         6.0919    2.2459   -0.0451 C.3       1 <0>         0.0726
     28 H1          5.9814    3.1523    0.5501 H         1 <0>         0.0795
     29 C20         7.2027    1.3778    0.5494 C.3       1 <0>        -0.0824
     30 C21         6.9032    1.1060    2.0250 C.3       1 <0>        -0.1772
     31 C22         7.9973    0.2510    2.6105 C.2       1 <0>         0.4902
     32 O2          8.9302   -0.1078    1.9123 O.co2     1 <0>        -0.6971
     33 O3          7.9496   -0.0820    3.7824 O.co2     1 <0>        -0.7174
     34 C23         6.4472    2.6155   -1.4622 C.2       1 <0>         0.4996
     35 O4          7.0818    3.6322   -1.6861 O.co2     1 <0>        -0.6961
     36 O5          6.1002    1.8979   -2.3847 O.co2     1 <0>        -0.7036
     37 H2         -0.9598    1.9054    0.0260 H         1 <0>         0.1251
     38 H3          1.1508    3.1682    0.0077 H         1 <0>         0.1365
     39 H4          3.3358   -0.5219   -0.0330 H         1 <0>         0.1311
     40 H5          1.2138   -1.7656   -0.0191 H         1 <0>         0.1202
     41 H6         -1.1489   -1.7256    0.5176 H         1 <0>         0.0521
     42 H7         -2.0557   -0.1941    0.5345 H         1 <0>         0.0938
     43 H8         -3.0659   -2.6188   -1.1108 H         1 <0>         0.0489
     44 H9         -3.7325   -1.0102   -0.7263 H         1 <0>         0.1012
     45 H10        -4.5679   -1.9988   -2.9119 H         1 <0>         0.1064
     46 H11        -3.8017   -0.4018   -3.0683 H         1 <0>         0.1166
     47 H12         0.6140   -2.9124   -4.0940 H         1 <0>         0.1657
     48 H13        -1.7670   -4.3129  -10.0089 H         1 <0>         0.4449
     49 H14        -3.2907   -3.7860   -9.5363 H         1 <0>         0.4301
     50 H15         1.6614   -3.6400   -5.5217 H         1 <0>         0.4355
     51 H16         1.8520   -4.2101   -7.0906 H         1 <0>         0.4345
     52 H17         0.1749   -1.4244   -2.1460 H         1 <0>         0.1147
     53 H18        -0.6940   -2.8322   -1.4963 H         1 <0>         0.0687
     54 H19         4.8421    0.5294   -0.0416 H         1 <0>         0.3902
     55 H20         7.2537    0.4325    0.0090 H         1 <0>         0.0594
     56 H21         8.1565    1.8981    0.4621 H         1 <0>         0.0744
     57 H22         6.8522    2.0513    2.5654 H         1 <0>         0.0537
     58 H23         5.9494    0.5857    2.1123 H         1 <0>         0.0494
     59 H24        -3.6184   -2.9926   -7.4091 H         1 <0>         0.4413
@<TRIPOS>BOND
     1    1    6 ar
     2    1    2 ar
     3    1   37 1
     4    2    3 ar
     5    2   38 1
     6    3    4 ar
     7    3   24 1
     8    4    5 ar
     9    4   39 1
    10    5    6 ar
    11    5   40 1
    12    6    7 1
    13    7    8 1
    14    7   41 1
    15    7   42 1
    16    8   23 1
    17    8    9 1
    18    9   10 1
    19    9   43 1
    20    9   44 1
    21   10   11 1
    22   10   45 1
    23   10   46 1
    24   11   20 ar
    25   11   12 ar
    26   12   13 ar
    27   12   23 1
    28   13   14 ar
    29   13   47 1
    30   14   19 ar
    31   14   15 ar
    32   15   16 ar
    33   15   22 1
    34   16   17 ar
    35   17   18 ar
    36   17   21 1
    37   18   19 ar
    38   18   59 1
    39   19   20 ar
    40   21   48 1
    41   21   49 1
    42   22   50 1
    43   22   51 1
    44   23   52 1
    45   23   53 1
    46   24   25 2
    47   24   26 am
    48   26   27 1
    49   26   54 1
    50   27   28 1
    51   27   29 1
    52   27   34 1
    53   29   30 1
    54   29   55 1
    55   29   56 1
    56   30   31 1
    57   30   57 1
    58   30   58 1
    59   31   32 2
    60   31   33 1
    61   34   35 2
    62   34   36 1
@<TRIPOS>MOLECULE
CHEMBL422316__1
   58    61     0     0     0
SMALL
USER_CHARGES

@<TRIPOS>ATOM
      1 C1         -0.0167    1.3794    0.0096 C.ar      1 <0>        -0.1062
      2 C2          1.1667    2.0884    0.0021 C.ar      1 <0>        -0.0666
      3 C3          2.3848    1.4070   -0.0132 C.ar      1 <0>        -0.1017
      4 C4          2.3966    0.0113   -0.0208 C.ar      1 <0>        -0.0868
      5 C5          1.2061   -0.6856   -0.0132 C.ar      1 <0>        -0.1234
      6 C6          0.0021   -0.0041    0.0020 C.ar      1 <0>        -0.0787
      7 C7         -1.2946   -0.7719    0.0103 C.3       1 <0>         0.0986
      8 N1         -1.7292   -1.0140   -1.3719 N.3       1 <0>        -0.5269
      9 C8         -3.0910   -1.5701   -1.4068 C.3       1 <0>         0.0515
     10 C9         -3.6284   -1.4519   -2.8327 C.3       1 <0>        -0.0680
     11 C10        -2.6302   -2.0264   -3.8088 C.ar      1 <0>         0.2331
     12 C11        -1.3070   -2.2317   -3.4464 C.ar      1 <0>        -0.1659
     13 C12        -0.4203   -2.7503   -4.3591 C.ar      1 <0>         0.0011
     14 C13        -0.8880   -3.0627   -5.6388 C.ar      1 <0>        -0.2880
     15 C14        -0.0464   -3.6015   -6.6428 C.ar      1 <0>         0.5279
     16 N2         -0.5759   -3.8698   -7.8280 N.ar      1 <0>        -0.6406
     17 C15        -1.8622   -3.6423   -8.0771 C.ar      1 <0>         0.6294
     18 N3         -2.6882   -3.1415   -7.1778 N.ar      1 <0>        -0.6058
     19 C16        -2.2516   -2.8347   -5.9478 C.ar      1 <0>         0.4176
     20 N4         -3.0602   -2.3267   -5.0213 N.ar      1 <0>        -0.4969
     21 N5         -2.3556   -3.9437   -9.3321 N.pl3     1 <0>        -0.8165
     22 N6          1.2874   -3.8399   -6.3941 N.pl3     1 <0>        -0.8120
     23 C17        -0.7982   -1.9090   -2.0664 C.3       1 <0>         0.0978
     24 C18         3.6569    2.1603   -0.0218 C.2       1 <0>         0.5490
     25 O1          3.6435    3.3757   -0.0155 O.2       1 <0>        -0.5531
     26 N7          4.8314    1.4994   -0.0366 N.am      1 <0>        -0.6754
     27 C19         6.0919    2.2459   -0.0451 C.3       1 <0>         0.0724
     28 H1          5.9814    3.1523    0.5501 H         1 <0>         0.0782
     29 C20         7.2027    1.3778    0.5494 C.3       1 <0>        -0.0802
     30 C21         6.9032    1.1060    2.0250 C.3       1 <0>        -0.1778
     31 C22         7.9973    0.2510    2.6105 C.2       1 <0>         0.4908
     32 O2          8.9302   -0.1078    1.9123 O.co2     1 <0>        -0.6971
     33 O3          7.9496   -0.0820    3.7824 O.co2     1 <0>        -0.7200
     34 C23         6.4472    2.6155   -1.4622 C.2       1 <0>         0.4958
     35 O4          5.7154    2.2860   -2.3799 O.co2     1 <0>        -0.6972
     36 O5          7.4666    3.2441   -1.6909 O.co2     1 <0>        -0.6994
     37 H2         -0.9598    1.9054    0.0260 H         1 <0>         0.1241
     38 H3          1.1508    3.1682    0.0077 H         1 <0>         0.1339
     39 H4          3.3358   -0.5219   -0.0330 H         1 <0>         0.1283
     40 H5          1.2138   -1.7656   -0.0191 H         1 <0>         0.1202
     41 H6         -1.1489   -1.7256    0.5176 H         1 <0>         0.0464
     42 H7         -2.0557   -0.1941    0.5345 H         1 <0>         0.0879
     43 H8         -3.0659   -2.6188   -1.1108 H         1 <0>         0.0423
     44 H9         -3.7325   -1.0102   -0.7263 H         1 <0>         0.0893
     45 H10        -4.5679   -1.9988   -2.9119 H         1 <0>         0.0941
     46 H11        -3.8017   -0.4018   -3.0683 H         1 <0>         0.1009
     47 H12         0.6140   -2.9124   -4.0940 H         1 <0>         0.1380
     48 H13        -1.7670   -4.3129  -10.0089 H         1 <0>         0.4130
     49 H14        -3.2907   -3.7860   -9.5363 H         1 <0>         0.4153
     50 H15         1.6618   -3.6385   -5.5222 H         1 <0>         0.4179
     51 H16         1.8522   -4.2092   -7.0909 H         1 <0>         0.4144
     52 H17         0.1749   -1.4244   -2.1460 H         1 <0>         0.0997
     53 H18        -0.6940   -2.8322   -1.4963 H         1 <0>         0.0507
     54 H19         4.8421    0.5294   -0.0416 H         1 <0>         0.3887
     55 H20         7.2537    0.4325    0.0090 H         1 <0>         0.0546
     56 H21         8.1565    1.8981    0.4621 H         1 <0>         0.0793
     57 H22         6.8522    2.0513    2.5654 H         1 <0>         0.0524
     58 H23         5.9494    0.5857    2.1123 H         1 <0>         0.0498
@<TRIPOS>BOND
     1    1    6 ar
     2    1    2 ar
     3    1   37 1
     4    2    3 ar
     5    2   38 1
     6    3    4 ar
     7    3   24 1
     8    4    5 ar
     9    4   39 1
    10    5    6 ar
    11    5   40 1
    12    6    7 1
    13    7    8 1
    14    7   41 1
    15    7   42 1
    16    8   23 1
    17    8    9 1
    18    9   10 1
    19    9   43 1
    20    9   44 1
    21   10   11 1
    22   10   45 1
    23   10   46 1
    24   11   20 ar
    25   11   12 ar
    26   12   13 ar
    27   12   23 1
    28   13   14 ar
    29   13   47 1
    30   14   19 ar
    31   14   15 ar
    32   15   16 ar
    33   15   22 1
    34   16   17 ar
    35   17   18 ar
    36   17   21 1
    37   18   19 ar
    38   19   20 ar
    39   21   48 1
    40   21   49 1
    41   22   50 1
    42   22   51 1
    43   23   52 1
    44   23   53 1
    45   24   25 2
    46   24   26 am
    47   26   27 1
    48   26   54 1
    49   27   28 1
    50   27   29 1
    51   27   34 1
    52   29   30 1
    53   29   55 1
    54   29   56 1
    55   30   31 1
    56   30   57 1
    57   30   58 1
    58   31   32 2
    59   31   33 1
    60   34   35 2
    61   34   36 1
@<TRIPOS>MOLECULE
CHEMBL20368
   55    57     0     0     0
SMALL
USER_CHARGES

@<TRIPOS>ATOM
      1 C1          2.5364   -0.7491   -0.3546 C.3       1 <0>        -0.1720
      2 C2          1.1956   -1.3049    0.1296 C.3       1 <0>         0.4023
      3 N1          0.1949   -1.1814   -0.9367 N.pl3     1 <0>        -0.6958
      4 C3         -1.0585   -0.9582   -0.6434 C.cat     1 <0>         0.7286
      5 N2         -1.4745   -0.7896    0.6233 N.2       1 <0>        -0.6369
      6 C4         -0.6096   -0.5909    1.6008 C.2       1 <0>         0.7310
      7 N3          0.7297   -0.5331    1.2921 N.pl3     1 <0>        -0.5931
      8 C5          1.6166    0.2329    2.0558 C.ar      1 <0>         0.0884
      9 C6          1.7474    1.5943    1.8133 C.ar      1 <0>        -0.0922
     10 C7          2.6238    2.3477    2.5690 C.ar      1 <0>        -0.1015
     11 C8          3.3714    1.7479    3.5662 C.ar      1 <0>        -0.0688
     12 C9          3.2435    0.3930    3.8101 C.ar      1 <0>        -0.0887
     13 C10         2.3640   -0.3650    3.0619 C.ar      1 <0>        -0.0891
     14 C11         4.0601   -0.2563    4.8977 C.3       1 <0>         0.1601
     15 N4          3.3183   -0.2079    6.1601 N.pl3     1 <0>        -0.7438
     16 C12         3.8767   -0.7521    7.3199 C.ar      1 <0>         0.2005
     17 C13         5.1360   -1.3327    7.2753 C.ar      1 <0>        -0.1117
     18 C14         5.6963   -1.8775    8.4318 C.ar      1 <0>        -0.0942
     19 C15         4.9897   -1.8373    9.6320 C.ar      1 <0>        -0.1069
     20 C16         3.7255   -1.2532    9.6736 C.ar      1 <0>        -0.0939
     21 C17         3.1730   -0.7055    8.5147 C.ar      1 <0>        -0.1052
     22 C18         2.9722   -1.2085   10.9453 C.2       1 <0>         0.5633
     23 O1          1.8694   -0.6987   10.9809 O.2       1 <0>        -0.5343
     24 N5          3.5086   -1.7331   12.0650 N.am      1 <0>        -0.8473
     25 C19         7.0382   -2.4970    8.3832 C.2       1 <0>         0.5635
     26 O2          7.6538   -2.5320    7.3358 O.2       1 <0>        -0.5347
     27 N6          7.5785   -3.0228    9.5004 N.am      1 <0>        -0.8472
     28 N7         -1.0357   -0.4452    2.8917 N.pl3     1 <0>        -0.7696
     29 N8         -1.9836   -0.8930   -1.6657 N.pl3     1 <0>        -0.7918
     30 C20         1.3574   -2.7758    0.5184 C.3       1 <0>        -0.1812
     31 H1          3.2919   -0.8998    0.4164 H         1 <0>         0.1015
     32 H2          2.8374   -1.2679   -1.2647 H         1 <0>         0.0988
     33 H3          2.4349    0.3165   -0.5605 H         1 <0>         0.0828
     34 H4          1.1644    2.0631    1.0343 H         1 <0>         0.1286
     35 H5          2.7259    3.4062    2.3810 H         1 <0>         0.1419
     36 H6          4.0567    2.3392    4.1554 H         1 <0>         0.1408
     37 H7          2.2614   -1.4225    3.2558 H         1 <0>         0.1366
     38 H8          4.2583   -1.2947    4.6323 H         1 <0>         0.0764
     39 H9          5.0042    0.2765    5.0104 H         1 <0>         0.0803
     40 H10         2.4396    0.2018    6.1910 H         1 <0>         0.4033
     41 H11         5.6832   -1.3635    6.3447 H         1 <0>         0.1413
     42 H12         5.4210   -2.2585   10.5281 H         1 <0>         0.1285
     43 H13         2.1948   -0.2489    8.5472 H         1 <0>         0.1410
     44 H14         4.3887   -2.1399   12.0366 H         1 <0>         0.4010
     45 H15         3.0145   -1.7038   12.8992 H         1 <0>         0.4102
     46 H16         7.0872   -2.9949   10.3363 H         1 <0>         0.4012
     47 H17         8.4587   -3.4292    9.4685 H         1 <0>         0.4102
     48 H18        -1.9762   -0.5470    3.1064 H         1 <0>         0.4409
     49 H19        -0.3976   -0.2400    3.5928 H         1 <0>         0.4294
     50 H20        -1.6992   -1.0123   -2.5854 H         1 <0>         0.4291
     51 H21        -2.9180   -0.7280   -1.4645 H         1 <0>         0.4409
     52 H22         2.0938   -2.8615    1.3174 H         1 <0>         0.0965
     53 H23         0.4004   -3.1680    0.8627 H         1 <0>         0.0717
     54 H24         1.6932   -3.3458   -0.3479 H         1 <0>         0.0974
     55 H25         0.4656   -1.2657   -1.8643 H         1 <0>         0.4317
@<TRIPOS>BOND
     1    1    2 1
     2    1   31 1
     3    1   32 1
     4    1   33 1
     5    2    7 1
     6    2    3 1
     7    2   30 1
     8    3    4 2
     9    3   55 1
    10    4    5 1
    11    4   29 1
    12    5    6 2
    13    6    7 1
    14    6   28 1
    15    7    8 1
    16    8   13 ar
    17    8    9 ar
    18    9   10 ar
    19    9   34 1
    20   10   11 ar
    21   10   35 1
    22   11   12 ar
    23   11   36 1
    24   12   13 ar
    25   12   14 1
    26   13   37 1
    27   14   15 1
    28   14   38 1
    29   14   39 1
    30   15   16 1
    31   15   40 1
    32   16   21 ar
    33   16   17 ar
    34   17   18 ar
    35   17   41 1
    36   18   19 ar
    37   18   25 1
    38   19   20 ar
    39   19   42 1
    40   20   21 ar
    41   20   22 1
    42   21   43 1
    43   22   23 2
    44   22   24 am
    45   24   44 1
    46   24   45 1
    47   25   26 2
    48   25   27 am
    49   27   46 1
    50   27   47 1
    51   28   48 1
    52   28   49 1
    53   29   50 1
    54   29   51 1
    55   30   52 1
    56   30   53 1
    57   30   54 1
@<TRIPOS>MOLECULE
CHEMBL79464
   61    66     0     0     0
SMALL
USER_CHARGES

@<TRIPOS>ATOM
      1 C1         -0.0158    1.3103    0.0092 C.ar      1 <0>        -0.1284
      2 C2          1.2504    2.0631    0.0012 C.ar      1 <0>        -0.1162
      3 C3          2.3959    1.4174   -0.0026 C.ar      1 <0>        -0.1221
      4 C4          2.4158   -0.0576    0.0012 C.ar      1 <0>         0.1907
      5 C5          1.2872   -0.7303   -0.0142 C.ar      1 <0>        -0.0843
      6 C6          0.0021   -0.0041    0.0020 C.ar      1 <0>        -0.0934
      7 C7          1.2842   -2.1948   -0.0842 C.2       1 <0>        -0.0952
      8 C8          2.1113   -2.9783    0.5294 C.2       1 <0>        -0.0909
      9 C9          3.1992   -2.5404    1.4107 C.ar      1 <0>        -0.0347
     10 C10         3.4973   -3.3145    2.6317 C.ar      1 <0>        -0.1547
     11 C11         4.4867   -2.9538    3.4186 C.ar      1 <0>         0.1242
     12 C12         5.3013   -1.7738    3.0813 C.ar      1 <0>        -0.1539
     13 C13         5.0288   -1.0770    2.0001 C.ar      1 <0>        -0.1047
     14 C14         3.9094   -1.4738    1.1244 C.ar      1 <0>         0.1456
     15 N1          3.6014   -0.7030    0.0583 N.pl3     1 <0>        -0.5815
     16 C15         4.5587   -0.5660   -1.0422 C.3       1 <0>         0.1907
     17 C16         5.4680    0.6055   -0.7741 C.ar      1 <0>         0.0256
     18 C17         6.7066    0.3938   -0.1693 C.ar      1 <0>         0.1491
     19 N2          7.5181    1.4009    0.0746 N.ar      1 <0>        -0.4387
     20 C18         7.1501    2.6397   -0.2616 C.ar      1 <0>         0.3743
     21 C19         5.8903    2.8491   -0.8760 C.ar      1 <0>        -0.0933
     22 N3          5.0878    1.8176   -1.1180 N.ar      1 <0>        -0.3664
     23 C20         5.5223    4.2210   -1.2304 C.ar      1 <0>         0.5440
     24 N4          6.3917    5.1831   -0.9541 N.ar      1 <0>        -0.6282
     25 C21         7.5577    4.9142   -0.3754 C.ar      1 <0>         0.6395
     26 N5          7.9378    3.6984   -0.0361 N.ar      1 <0>        -0.6007
     27 N6          8.4170    5.9647   -0.1155 N.pl3     1 <0>        -0.8075
     28 N7          4.3147    4.5025   -1.8307 N.pl3     1 <0>        -0.7928
     29 O1          4.7586   -3.6707    4.5443 O.3       1 <0>        -0.3057
     30 C22         5.8481   -3.2213    5.3524 C.3       1 <0>         0.1114
     31 C23         5.9975   -4.1303    6.5450 C.ar      1 <0>        -0.1159
     32 C24         5.3101   -3.8520    7.7133 C.ar      1 <0>        -0.1126
     33 C25         5.4423   -4.6793    8.8089 C.ar      1 <0>        -0.0902
     34 C26         6.2723   -5.8009    8.7370 C.ar      1 <0>        -0.1195
     35 C27         6.9629   -6.0758    7.5539 C.ar      1 <0>        -0.0902
     36 C28         6.8170   -5.2425    6.4646 C.ar      1 <0>        -0.1119
     37 C29         6.4193   -6.6904    9.9049 C.2       1 <0>         0.5179
     38 O2          5.8138   -6.4467   10.9391 O.co2     1 <0>        -0.6855
     39 O3          7.1466   -7.6713    9.8387 O.co2     1 <0>        -0.6853
     40 H1         -0.9580    1.8379    0.0256 H         1 <0>         0.1227
     41 H2          1.2379    3.1430   -0.0012 H         1 <0>         0.1192
     42 H3          3.3247    1.9684   -0.0081 H         1 <0>         0.1278
     43 H4         -0.9270   -0.5547    0.0087 H         1 <0>         0.1234
     44 H5          0.5280   -2.6588   -0.7001 H         1 <0>         0.1176
     45 H6          1.9906   -4.0412    0.3809 H         1 <0>         0.1207
     46 H7          2.9003   -4.1796    2.8797 H         1 <0>         0.1339
     47 H8          6.1207   -1.4812    3.7212 H         1 <0>         0.1325
     48 H9          5.6257   -0.2116    1.7524 H         1 <0>         0.1209
     49 H10         5.1529   -1.4763   -1.1224 H         1 <0>         0.0999
     50 H11         4.0190   -0.4010   -1.9748 H         1 <0>         0.0958
     51 H12         7.0033   -0.6084    0.1026 H         1 <0>         0.1793
     52 H13         8.1628    6.8697   -0.3547 H         1 <0>         0.4164
     53 H14         9.2744    5.7971    0.3060 H         1 <0>         0.4198
     54 H15         3.6911    3.7855   -2.0256 H         1 <0>         0.4255
     55 H16         4.0879    5.4178   -2.0584 H         1 <0>         0.4157
     56 H17         6.7666   -3.2377    4.7657 H         1 <0>         0.0671
     57 H18         5.6526   -2.2044    5.6929 H         1 <0>         0.0652
     58 H19         4.6688   -2.9847    7.7675 H         1 <0>         0.1147
     59 H20         4.9057   -4.4605    9.7203 H         1 <0>         0.1286
     60 H21         7.6062   -6.9411    7.4912 H         1 <0>         0.1289
     61 H22         7.3467   -5.4563    5.5481 H         1 <0>         0.1157
@<TRIPOS>BOND
     1    1    6 ar
     2    1    2 ar
     3    1   40 1
     4    2    3 ar
     5    2   41 1
     6    3    4 ar
     7    3   42 1
     8    4   15 1
     9    4    5 ar
    10    5    6 ar
    11    5    7 1
    12    6   43 1
    13    7    8 2
    14    7   44 1
    15    8    9 1
    16    8   45 1
    17    9   14 ar
    18    9   10 ar
    19   10   11 ar
    20   10   46 1
    21   11   12 ar
    22   11   29 1
    23   12   13 ar
    24   12   47 1
    25   13   14 ar
    26   13   48 1
    27   14   15 1
    28   15   16 1
    29   16   17 1
    30   16   49 1
    31   16   50 1
    32   17   22 ar
    33   17   18 ar
    34   18   19 ar
    35   18   51 1
    36   19   20 ar
    37   20   26 ar
    38   20   21 ar
    39   21   22 ar
    40   21   23 ar
    41   23   24 ar
    42   23   28 1
    43   24   25 ar
    44   25   26 ar
    45   25   27 1
    46   27   52 1
    47   27   53 1
    48   28   54 1
    49   28   55 1
    50   29   30 1
    51   30   31 1
    52   30   56 1
    53   30   57 1
    54   31   36 ar
    55   31   32 ar
    56   32   33 ar
    57   32   58 1
    58   33   34 ar
    59   33   59 1
    60   34   35 ar
    61   34   37 1
    62   35   36 ar
    63   35   60 1
    64   36   61 1
    65   37   38 2
    66   37   39 1
@<TRIPOS>MOLECULE
CHEMBL32635
   41    44     0     0     0
SMALL
USER_CHARGES

@<TRIPOS>ATOM
      1 C1         -0.0164    1.3567    0.0095 C.ar      1 <0>        -0.1166
      2 C2          1.1685    2.0906    0.0021 C.ar      1 <0>        -0.1024
      3 C3          2.3785    1.4679   -0.0132 C.ar      1 <0>        -0.1206
      4 C4          2.4378    0.0637   -0.0214 C.ar      1 <0>        -0.0340
      5 C5          1.2328   -0.6827   -0.0134 C.ar      1 <0>        -0.0568
      6 C6          0.0021   -0.0041    0.0020 C.ar      1 <0>        -0.0972
      7 C7          1.2920   -2.0865   -0.0210 C.ar      1 <0>        -0.0822
      8 C8          2.5022   -2.7094   -0.0359 C.ar      1 <0>        -0.1252
      9 C9          3.6867   -1.9757   -0.0433 C.ar      1 <0>        -0.0789
     10 C10         3.6681   -0.6146   -0.0367 C.ar      1 <0>        -0.1167
     11 C11         4.9603    0.1606   -0.0459 C.3       1 <0>         0.1556
     12 N1          5.2692    0.6111    1.3134 N.pl3     1 <0>        -0.7141
     13 C12         6.4287    1.3558    1.5573 C.ar      1 <0>         0.1732
     14 C13         6.7282    1.7794    2.8423 C.ar      1 <0>        -0.0920
     15 C14         7.9000    2.5211    3.0309 C.ar      1 <0>        -0.1776
     16 C15         8.2910    2.9975    4.3068 C.ar      1 <0>         0.5632
     17 N2          9.4155    3.6923    4.4000 N.ar      1 <0>        -0.5918
     18 C16        10.1644    3.9410    3.3293 C.ar      1 <0>         0.6987
     19 N3          9.8464    3.5211    2.1200 N.ar      1 <0>        -0.5688
     20 C17         8.7272    2.8089    1.9175 C.ar      1 <0>         0.3290
     21 N4          8.3869    2.3743    0.7044 N.ar      1 <0>        -0.4510
     22 C18         7.2941    1.6719    0.5086 C.ar      1 <0>         0.1490
     23 N5         11.3268    4.6721    3.4909 N.pl3     1 <0>        -0.7862
     24 N6          7.5213    2.7451    5.4220 N.pl3     1 <0>        -0.7651
     25 H1         -0.9634    1.8756    0.0259 H         1 <0>         0.1276
     26 H2          1.1258    3.1698    0.0084 H         1 <0>         0.1247
     27 H3          3.2883    2.0497   -0.0195 H         1 <0>         0.1236
     28 H4         -0.9241   -0.5595    0.0082 H         1 <0>         0.1318
     29 H5          0.3820   -2.6682   -0.0147 H         1 <0>         0.1330
     30 H6          2.5450   -3.7886   -0.0417 H         1 <0>         0.1301
     31 H7          4.6338   -2.4947   -0.0548 H         1 <0>         0.1270
     32 H8          5.7651   -0.4789   -0.4084 H         1 <0>         0.0840
     33 H9          4.8604    1.0257   -0.7015 H         1 <0>         0.0834
     34 H10         4.6700    0.3932    2.0445 H         1 <0>         0.4141
     35 H11         6.0777    1.5449    3.6720 H         1 <0>         0.1585
     36 H12         7.0570    1.3344   -0.4895 H         1 <0>         0.1873
     37 H13        11.5805    4.9915    4.3710 H         1 <0>         0.4453
     38 H14        11.8886    4.8657    2.7242 H         1 <0>         0.4317
     39 H15         6.7002    2.2354    5.3394 H         1 <0>         0.4309
     40 H16         7.8008    3.0773    6.2895 H         1 <0>         0.4332
     41 H17        10.4264    3.7289    1.3708 H         1 <0>         0.4424
@<TRIPOS>BOND
     1    1    6 ar
     2    1    2 ar
     3    1   25 1
     4    2    3 ar
     5    2   26 1
     6    3    4 ar
     7    3   27 1
     8    4   10 ar
     9    4    5 ar
    10    5    6 ar
    11    5    7 ar
    12    6   28 1
    13    7    8 ar
    14    7   29 1
    15    8    9 ar
    16    8   30 1
    17    9   10 ar
    18    9   31 1
    19   10   11 1
    20   11   12 1
    21   11   32 1
    22   11   33 1
    23   12   13 1
    24   12   34 1
    25   13   22 ar
    26   13   14 ar
    27   14   15 ar
    28   14   35 1
    29   15   20 ar
    30   15   16 ar
    31   16   17 ar
    32   16   24 1
    33   17   18 ar
    34   18   19 ar
    35   18   23 1
    36   19   20 ar
    37   19   41 1
    38   20   21 ar
    39   21   22 ar
    40   22   36 1
    41   23   37 1
    42   23   38 1
    43   24   39 1
    44   24   40 1
@<TRIPOS>MOLECULE
CHEMBL32635__1
   40    43     0     0     0
SMALL
USER_CHARGES

@<TRIPOS>ATOM
      1 C1         -0.0164    1.3567    0.0095 C.ar      1 <0>        -0.1158
      2 C2          1.1685    2.0906    0.0021 C.ar      1 <0>        -0.1110
      3 C3          2.3785    1.4679   -0.0132 C.ar      1 <0>        -0.1090
      4 C4          2.4378    0.0637   -0.0214 C.ar      1 <0>        -0.0363
      5 C5          1.2328   -0.6827   -0.0134 C.ar      1 <0>        -0.0554
      6 C6          0.0021   -0.0041    0.0020 C.ar      1 <0>        -0.1045
      7 C7          1.2920   -2.0865   -0.0210 C.ar      1 <0>        -0.0945
      8 C8          2.5022   -2.7094   -0.0359 C.ar      1 <0>        -0.1206
      9 C9          3.6867   -1.9757   -0.0433 C.ar      1 <0>        -0.0895
     10 C10         3.6681   -0.6146   -0.0367 C.ar      1 <0>        -0.0988
     11 C11         4.9603    0.1606   -0.0459 C.3       1 <0>         0.1639
     12 N1          5.2692    0.6111    1.3134 N.pl3     1 <0>        -0.7374
     13 C12         6.4287    1.3558    1.5573 C.ar      1 <0>         0.1256
     14 C13         6.7282    1.7794    2.8423 C.ar      1 <0>        -0.0993
     15 C14         7.9000    2.5211    3.0309 C.ar      1 <0>        -0.2347
     16 C15         8.2910    2.9975    4.3068 C.ar      1 <0>         0.5127
     17 N2          9.4155    3.6923    4.4000 N.ar      1 <0>        -0.6288
     18 C16        10.1644    3.9410    3.3293 C.ar      1 <0>         0.6181
     19 N3          9.8464    3.5211    2.1200 N.ar      1 <0>        -0.5928
     20 C17         8.7272    2.8089    1.9175 C.ar      1 <0>         0.3685
     21 N4          8.3869    2.3743    0.7044 N.ar      1 <0>        -0.4499
     22 C18         7.2941    1.6719    0.5086 C.ar      1 <0>         0.1370
     23 N5         11.3268    4.6721    3.4909 N.pl3     1 <0>        -0.8172
     24 N6          7.5213    2.7451    5.4220 N.pl3     1 <0>        -0.8179
     25 H1         -0.9634    1.8756    0.0259 H         1 <0>         0.1241
     26 H2          1.1258    3.1698    0.0084 H         1 <0>         0.1235
     27 H3          3.2883    2.0497   -0.0195 H         1 <0>         0.1286
     28 H4         -0.9241   -0.5595    0.0082 H         1 <0>         0.1280
     29 H5          0.3820   -2.6682   -0.0147 H         1 <0>         0.1288
     30 H6          2.5450   -3.7886   -0.0417 H         1 <0>         0.1265
     31 H7          4.6338   -2.4947   -0.0548 H         1 <0>         0.1264
     32 H8          5.7651   -0.4789   -0.4084 H         1 <0>         0.0735
     33 H9          4.8604    1.0257   -0.7015 H         1 <0>         0.0730
     34 H10         4.6700    0.3932    2.0445 H         1 <0>         0.4027
     35 H11         6.0777    1.5449    3.6720 H         1 <0>         0.1323
     36 H12         7.0570    1.3344   -0.4895 H         1 <0>         0.1636
     37 H13        11.5805    4.9915    4.3710 H         1 <0>         0.4135
     38 H14        11.8886    4.8657    2.7242 H         1 <0>         0.4167
     39 H15         6.7002    2.2354    5.3394 H         1 <0>         0.4133
     40 H16         7.8008    3.0773    6.2895 H         1 <0>         0.4131
@<TRIPOS>BOND
     1    1    6 ar
     2    1    2 ar
     3    1   25 1
     4    2    3 ar
     5    2   26 1
     6    3    4 ar
     7    3   27 1
     8    4   10 ar
     9    4    5 ar
    10    5    6 ar
    11    5    7 ar
    12    6   28 1
    13    7    8 ar
    14    7   29 1
    15    8    9 ar
    16    8   30 1
    17    9   10 ar
    18    9   31 1
    19   10   11 1
    20   11   12 1
    21   11   32 1
    22   11   33 1
    23   12   13 1
    24   12   34 1
    25   13   22 ar
    26   13   14 ar
    27   14   15 ar
    28   14   35 1
    29   15   20 ar
    30   15   16 ar
    31   16   17 ar
    32   16   24 1
    33   17   18 ar
    34   18   19 ar
    35   18   23 1
    36   19   20 ar
    37   20   21 ar
    38   21   22 ar
    39   22   36 1
    40   23   37 1
    41   23   38 1
    42   24   39 1
    43   24   40 1
@<TRIPOS>MOLECULE
CHEMBL150607
   72    75     0     0     0
SMALL
USER_CHARGES

@<TRIPOS>ATOM
      1 C1          1.3514    1.3585   -0.7794 C.3       1 <0>        -0.1693
      2 C2          1.2844   -0.1422   -0.6593 C.ar      1 <0>         0.0771
      3 C3          1.3766   -0.9435   -1.7673 C.ar      1 <0>        -0.1668
      4 C4          1.3125   -2.3245   -1.6298 C.ar      1 <0>         0.2400
      5 N1          1.1641   -2.8971   -0.4560 N.ar      1 <0>        -0.5000
      6 C5          1.0684   -2.1726    0.6591 C.ar      1 <0>         0.4027
      7 C6          1.1319   -0.7590    0.5877 C.ar      1 <0>        -0.2405
      8 C7          1.0326   -0.0150    1.7894 C.ar      1 <0>         0.5797
      9 N2          0.8894   -0.6782    2.9280 N.ar      1 <0>        -0.5808
     10 C8          0.8391   -2.0069    2.9519 C.ar      1 <0>         0.6983
     11 N3          0.9165   -2.7462    1.8613 N.ar      1 <0>        -0.5713
     12 N4          0.6885   -2.6407    4.1705 N.pl3     1 <0>        -0.7815
     13 N5          1.0841    1.3615    1.7749 N.pl3     1 <0>        -0.8021
     14 C9          1.5468   -0.3277   -3.1322 C.3       1 <0>         0.1657
     15 N6          2.9504    0.0428   -3.3292 N.pl3     1 <0>        -0.7485
     16 C10         3.3528    0.6328   -4.5222 C.ar      1 <0>         0.2136
     17 C11         2.4197    0.8760   -5.5263 C.ar      1 <0>        -0.2022
     18 C12         2.8148    1.4597   -6.7082 C.ar      1 <0>        -0.0175
     19 C13         4.1549    1.8087   -6.8999 C.ar      1 <0>        -0.1541
     20 C14         5.0895    1.5633   -5.8897 C.ar      1 <0>        -0.0378
     21 C15         4.6870    0.9844   -4.7079 C.ar      1 <0>        -0.1931
     22 C16         4.5819    2.4342   -8.1658 C.2       1 <0>         0.5529
     23 O1          3.7680    2.6468   -9.0438 O.2       1 <0>        -0.5501
     24 N7          5.8742    2.7701   -8.3492 N.am      1 <0>        -0.6837
     25 C17         6.2983    3.3913   -9.6064 C.3       1 <0>         0.0768
     26 C18         7.7848    3.1123   -9.8371 C.3       1 <0>        -0.1063
     27 C19         7.9969    1.6102  -10.0361 C.3       1 <0>        -0.1250
     28 C20         9.4834    1.3311  -10.2669 C.3       1 <0>         0.1248
     29 N8          9.6864   -0.1071  -10.4574 N.am      1 <0>        -0.7359
     30 C21        10.9255   -0.5894  -10.6781 C.2       1 <0>         0.5708
     31 O2         11.8743    0.1689  -10.7190 O.2       1 <0>        -0.4926
     32 C22        11.1306   -2.0424  -10.8706 C.ar      1 <0>        -0.0957
     33 C23        10.6732   -2.9462   -9.9168 C.ar      1 <0>        -0.1132
     34 C24        10.8666   -4.3031  -10.1009 C.ar      1 <0>        -0.1375
     35 C25        11.5138   -4.7715  -11.2304 C.ar      1 <0>        -0.1255
     36 C26        11.9751   -3.8889  -12.1889 C.ar      1 <0>        -0.0927
     37 C27        11.7845   -2.5188  -12.0229 C.ar      1 <0>        -0.0906
     38 C28        12.2704   -1.5716  -13.0466 C.2       1 <0>         0.5107
     39 O3         12.9441   -1.9763  -13.9833 O.co2     1 <0>        -0.6928
     40 O4         11.9990   -0.3827  -12.9574 O.co2     1 <0>        -0.6483
     41 C29         6.0720    4.8794   -9.5328 C.2       1 <0>         0.4930
     42 O5          5.7749    5.3991   -8.4706 O.co2     1 <0>        -0.6935
     43 O6          6.1861    5.5637  -10.5354 O.co2     1 <0>        -0.6931
     44 H1          2.3698    1.6936   -0.5826 H         1 <0>         0.1087
     45 H2          1.0594    1.6558   -1.7867 H         1 <0>         0.1099
     46 H3          0.6736    1.8116   -0.0560 H         1 <0>         0.1042
     47 H4          1.3861   -2.9443   -2.5112 H         1 <0>         0.1961
     48 H5          0.6220   -2.1173    4.9845 H         1 <0>         0.4467
     49 H6          0.6494   -3.6090    4.2120 H         1 <0>         0.4324
     50 H7          0.4816    1.8753    2.3352 H         1 <0>         0.4299
     51 H8          1.7228    1.8170    1.2043 H         1 <0>         0.4379
     52 H9          1.2506   -1.0477   -3.8951 H         1 <0>         0.0850
     53 H10         0.9218    0.5619   -3.2100 H         1 <0>         0.0851
     54 H11         3.5990   -0.1234   -2.6273 H         1 <0>         0.3974
     55 H12         1.3846    0.6058   -5.3778 H         1 <0>         0.1216
     56 H13         2.0905    1.6477   -7.4869 H         1 <0>         0.1363
     57 H14         6.1255    1.8315   -6.0350 H         1 <0>         0.1295
     58 H15         5.4077    0.7989   -3.9252 H         1 <0>         0.1217
     59 H16         6.5235    2.6006   -7.6488 H         1 <0>         0.3880
     60 H17         5.7184    2.9760  -10.4306 H         1 <0>         0.0853
     61 H18         8.1214    3.6475  -10.7250 H         1 <0>         0.0870
     62 H19         8.3562    3.4484   -8.9718 H         1 <0>         0.0632
     63 H20         7.6602    1.0750   -9.1483 H         1 <0>         0.0599
     64 H21         7.4255    1.2741  -10.9014 H         1 <0>         0.0674
     65 H22         9.8200    1.8664  -11.1547 H         1 <0>         0.0696
     66 H23        10.0548    1.6672   -9.4016 H         1 <0>         0.0593
     67 H24         8.9291   -0.7124  -10.4248 H         1 <0>         0.3904
     68 H25        10.1675   -2.5880   -9.0323 H         1 <0>         0.1176
     69 H26        10.5105   -5.0015   -9.3580 H         1 <0>         0.1150
     70 H27        11.6597   -5.8333  -11.3638 H         1 <0>         0.1155
     71 H28        12.4798   -4.2615  -13.0680 H         1 <0>         0.1303
     72 H29         0.8741   -3.7128    1.9313 H         1 <0>         0.4448
@<TRIPOS>BOND
     1    1    2 1
     2    1   44 1
     3    1   45 1
     4    1   46 1
     5    2    7 ar
     6    2    3 ar
     7    3    4 ar
     8    3   14 1
     9    4    5 ar
    10    4   47 1
    11    5    6 ar
    12    6   11 ar
    13    6    7 ar
    14    7    8 ar
    15    8    9 ar
    16    8   13 1
    17    9   10 ar
    18   10   11 ar
    19   10   12 1
    20   11   72 1
    21   12   48 1
    22   12   49 1
    23   13   50 1
    24   13   51 1
    25   14   15 1
    26   14   52 1
    27   14   53 1
    28   15   16 1
    29   15   54 1
    30   16   21 ar
    31   16   17 ar
    32   17   18 ar
    33   17   55 1
    34   18   19 ar
    35   18   56 1
    36   19   20 ar
    37   19   22 1
    38   20   21 ar
    39   20   57 1
    40   21   58 1
    41   22   23 2
    42   22   24 am
    43   24   25 1
    44   24   59 1
    45   25   26 1
    46   25   41 1
    47   25   60 1
    48   26   27 1
    49   26   61 1
    50   26   62 1
    51   27   28 1
    52   27   63 1
    53   27   64 1
    54   28   29 1
    55   28   65 1
    56   28   66 1
    57   29   30 am
    58   29   67 1
    59   30   31 2
    60   30   32 1
    61   32   37 ar
    62   32   33 ar
    63   33   34 ar
    64   33   68 1
    65   34   35 ar
    66   34   69 1
    67   35   36 ar
    68   35   70 1
    69   36   37 ar
    70   36   71 1
    71   37   38 1
    72   38   39 2
    73   38   40 1
    74   41   42 2
    75   41   43 1
@<TRIPOS>MOLECULE
CHEMBL150607__1
   71    74     0     0     0
SMALL
USER_CHARGES

@<TRIPOS>ATOM
      1 C1          1.3514    1.3585   -0.7794 C.3       1 <0>        -0.1557
      2 C2          1.2844   -0.1422   -0.6593 C.ar      1 <0>         0.0590
      3 C3          1.3766   -0.9435   -1.7673 C.ar      1 <0>        -0.2103
      4 C4          1.3125   -2.3245   -1.6298 C.ar      1 <0>         0.2110
      5 N1          1.1641   -2.8971   -0.4560 N.ar      1 <0>        -0.4917
      6 C5          1.0684   -2.1726    0.6591 C.ar      1 <0>         0.4136
      7 C6          1.1319   -0.7590    0.5877 C.ar      1 <0>        -0.2809
      8 C7          1.0326   -0.0150    1.7894 C.ar      1 <0>         0.5252
      9 N2          0.8894   -0.6782    2.9280 N.ar      1 <0>        -0.6195
     10 C8          0.8391   -2.0069    2.9519 C.ar      1 <0>         0.6219
     11 N3          0.9165   -2.7462    1.8613 N.ar      1 <0>        -0.5917
     12 N4          0.6885   -2.6407    4.1705 N.pl3     1 <0>        -0.8136
     13 N5          1.0841    1.3615    1.7749 N.pl3     1 <0>        -0.8452
     14 C9          1.5468   -0.3277   -3.1322 C.3       1 <0>         0.1756
     15 N6          2.9504    0.0428   -3.3292 N.pl3     1 <0>        -0.7421
     16 C10         3.3528    0.6328   -4.5222 C.ar      1 <0>         0.2272
     17 C11         2.4197    0.8760   -5.5263 C.ar      1 <0>        -0.2075
     18 C12         2.8148    1.4597   -6.7082 C.ar      1 <0>        -0.0152
     19 C13         4.1549    1.8087   -6.8999 C.ar      1 <0>        -0.1707
     20 C14         5.0895    1.5633   -5.8897 C.ar      1 <0>        -0.0359
     21 C15         4.6870    0.9844   -4.7079 C.ar      1 <0>        -0.2007
     22 C16         4.5819    2.4342   -8.1658 C.2       1 <0>         0.5530
     23 O1          3.7680    2.6468   -9.0438 O.2       1 <0>        -0.5525
     24 N7          5.8742    2.7701   -8.3492 N.am      1 <0>        -0.6876
     25 C17         6.2983    3.3913   -9.6064 C.3       1 <0>         0.0785
     26 C18         7.7848    3.1123   -9.8371 C.3       1 <0>        -0.1066
     27 C19         7.9969    1.6102  -10.0361 C.3       1 <0>        -0.1256
     28 C20         9.4834    1.3311  -10.2669 C.3       1 <0>         0.1253
     29 N8          9.6864   -0.1071  -10.4574 N.am      1 <0>        -0.7351
     30 C21        10.9255   -0.5894  -10.6781 C.2       1 <0>         0.5711
     31 O2         11.8743    0.1689  -10.7190 O.2       1 <0>        -0.4947
     32 C22        11.1306   -2.0424  -10.8706 C.ar      1 <0>        -0.0951
     33 C23        10.6732   -2.9462   -9.9168 C.ar      1 <0>        -0.1122
     34 C24        10.8666   -4.3031  -10.1009 C.ar      1 <0>        -0.1363
     35 C25        11.5138   -4.7715  -11.2304 C.ar      1 <0>        -0.1261
     36 C26        11.9751   -3.8889  -12.1889 C.ar      1 <0>        -0.0937
     37 C27        11.7845   -2.5188  -12.0229 C.ar      1 <0>        -0.0919
     38 C28        12.2704   -1.5716  -13.0466 C.2       1 <0>         0.5115
     39 O3         12.9441   -1.9763  -13.9833 O.co2     1 <0>        -0.6951
     40 O4         11.9990   -0.3827  -12.9574 O.co2     1 <0>        -0.6481
     41 C29         6.0720    4.8794   -9.5328 C.2       1 <0>         0.4941
     42 O5          6.1373    5.4536   -8.4592 O.co2     1 <0>        -0.6945
     43 O6          5.8237    5.5092  -10.5468 O.co2     1 <0>        -0.6953
     44 H1          2.3698    1.6936   -0.5826 H         1 <0>         0.0887
     45 H2          1.0594    1.6558   -1.7867 H         1 <0>         0.0889
     46 H3          0.6736    1.8116   -0.0560 H         1 <0>         0.0979
     47 H4          1.3861   -2.9443   -2.5112 H         1 <0>         0.1693
     48 H5          0.6220   -2.1173    4.9845 H         1 <0>         0.4146
     49 H6          0.6494   -3.6090    4.2120 H         1 <0>         0.4174
     50 H7          0.4816    1.8753    2.3352 H         1 <0>         0.4097
     51 H8          1.7228    1.8170    1.2043 H         1 <0>         0.4201
     52 H9          1.2506   -1.0477   -3.8951 H         1 <0>         0.0738
     53 H10         0.9218    0.5619   -3.2100 H         1 <0>         0.0736
     54 H11         3.5990   -0.1234   -2.6273 H         1 <0>         0.3983
     55 H12         1.3846    0.6058   -5.3778 H         1 <0>         0.1223
     56 H13         2.0905    1.6477   -7.4869 H         1 <0>         0.1331
     57 H14         6.1255    1.8315   -6.0350 H         1 <0>         0.1264
     58 H15         5.4077    0.7989   -3.9252 H         1 <0>         0.1212
     59 H16         6.5235    2.6006   -7.6488 H         1 <0>         0.3897
     60 H17         5.7184    2.9760  -10.4306 H         1 <0>         0.0836
     61 H18         8.1214    3.6475  -10.7250 H         1 <0>         0.0809
     62 H19         8.3562    3.4484   -8.9718 H         1 <0>         0.0665
     63 H20         7.6602    1.0750   -9.1483 H         1 <0>         0.0623
     64 H21         7.4255    1.2741  -10.9014 H         1 <0>         0.0671
     65 H22         9.8200    1.8664  -11.1547 H         1 <0>         0.0683
     66 H23        10.0548    1.6672   -9.4016 H         1 <0>         0.0598
     67 H24         8.9291   -0.7124  -10.4248 H         1 <0>         0.3912
     68 H25        10.1675   -2.5880   -9.0323 H         1 <0>         0.1192
     69 H26        10.5105   -5.0015   -9.3580 H         1 <0>         0.1160
     70 H27        11.6597   -5.8333  -11.3638 H         1 <0>         0.1151
     71 H28        12.4798   -4.2615  -13.0680 H         1 <0>         0.1293
@<TRIPOS>BOND
     1    1    2 1
     2    1   44 1
     3    1   45 1
     4    1   46 1
     5    2    7 ar
     6    2    3 ar
     7    3    4 ar
     8    3   14 1
     9    4    5 ar
    10    4   47 1
    11    5    6 ar
    12    6   11 ar
    13    6    7 ar
    14    7    8 ar
    15    8    9 ar
    16    8   13 1
    17    9   10 ar
    18   10   11 ar
    19   10   12 1
    20   12   48 1
    21   12   49 1
    22   13   50 1
    23   13   51 1
    24   14   15 1
    25   14   52 1
    26   14   53 1
    27   15   16 1
    28   15   54 1
    29   16   21 ar
    30   16   17 ar
    31   17   18 ar
    32   17   55 1
    33   18   19 ar
    34   18   56 1
    35   19   20 ar
    36   19   22 1
    37   20   21 ar
    38   20   57 1
    39   21   58 1
    40   22   23 2
    41   22   24 am
    42   24   25 1
    43   24   59 1
    44   25   26 1
    45   25   41 1
    46   25   60 1
    47   26   27 1
    48   26   61 1
    49   26   62 1
    50   27   28 1
    51   27   63 1
    52   27   64 1
    53   28   29 1
    54   28   65 1
    55   28   66 1
    56   29   30 am
    57   29   67 1
    58   30   31 2
    59   30   32 1
    60   32   37 ar
    61   32   33 ar
    62   33   34 ar
    63   33   68 1
    64   34   35 ar
    65   34   69 1
    66   35   36 ar
    67   35   70 1
    68   36   37 ar
    69   36   71 1
    70   37   38 1
    71   38   39 2
    72   38   40 1
    73   41   42 2
    74   41   43 1
@<TRIPOS>MOLECULE
CHEMBL150607__2
   72    75     0     0     0
SMALL
USER_CHARGES

@<TRIPOS>ATOM
      1 C1         -0.5829    1.4897   -0.3208 C.3       1 <0>        -0.1696
      2 C2         -0.7150   -0.0080   -0.4226 C.ar      1 <0>         0.0776
      3 C3         -0.5946   -0.6464   -1.6293 C.ar      1 <0>        -0.1671
      4 C4         -0.7201   -2.0284   -1.6965 C.ar      1 <0>         0.2398
      5 N1         -0.9537   -2.7551   -0.6264 N.ar      1 <0>        -0.5003
      6 C5         -1.0810   -2.1934    0.5760 C.ar      1 <0>         0.4027
      7 C6         -0.9584   -0.7886    0.7132 C.ar      1 <0>        -0.2403
      8 C7         -1.0931   -0.2198    2.0039 C.ar      1 <0>         0.5798
      9 N2         -1.3234   -1.0313    3.0263 N.ar      1 <0>        -0.5806
     10 C8         -1.4268   -2.3461    2.8551 C.ar      1 <0>         0.6983
     11 N3         -1.3198   -2.9250    1.6738 N.ar      1 <0>        -0.5715
     12 N4         -1.6675   -3.1395    3.9605 N.pl3     1 <0>        -0.7817
     13 N5         -0.9871    1.1408    2.1914 N.pl3     1 <0>        -0.8015
     14 C9         -0.3272    0.1491   -2.8809 C.3       1 <0>         0.1660
     15 N6          1.0984    0.4784   -2.9550 N.pl3     1 <0>        -0.7483
     16 C10         1.5873    1.2132   -4.0294 C.ar      1 <0>         0.2150
     17 C11         0.7199    1.6402   -5.0311 C.ar      1 <0>        -0.2034
     18 C12         1.2007    2.3676   -6.0957 C.ar      1 <0>        -0.0176
     19 C13         2.5617    2.6777   -6.1707 C.ar      1 <0>        -0.1578
     20 C14         3.4302    2.2475   -5.1633 C.ar      1 <0>        -0.0362
     21 C15         2.9423    1.5253   -4.0984 C.ar      1 <0>        -0.1920
     22 C16         3.0805    3.4568   -7.3109 C.2       1 <0>         0.5498
     23 O1          2.3240    3.8301   -8.1867 O.2       1 <0>        -0.5505
     24 N7          4.3929    3.7550   -7.3818 N.am      1 <0>        -0.6848
     25 C17         4.9081    4.5288   -8.5141 C.3       1 <0>         0.0786
     26 C18         6.1913    5.2503   -8.0971 C.3       1 <0>        -0.1082
     27 C19         5.8674    6.2826   -7.0153 C.3       1 <0>        -0.1244
     28 C20         7.1505    7.0041   -6.5982 C.3       1 <0>         0.1246
     29 N8          6.8403    7.9926   -5.5624 N.am      1 <0>        -0.7358
     30 C21         7.8233    8.7526   -5.0403 C.2       1 <0>         0.5706
     31 O2          8.9669    8.6179   -5.4287 O.2       1 <0>        -0.4923
     32 C22         7.5100    9.7512   -3.9938 C.ar      1 <0>        -0.0952
     33 C23         6.5347   10.7177   -4.2184 C.ar      1 <0>        -0.1122
     34 C24         6.2447   11.6486   -3.2376 C.ar      1 <0>        -0.1357
     35 C25         6.9191   11.6269   -2.0299 C.ar      1 <0>        -0.1260
     36 C26         7.8912   10.6743   -1.7886 C.ar      1 <0>        -0.0940
     37 C27         8.1929    9.7252   -2.7629 C.ar      1 <0>        -0.0928
     38 C28         9.2267    8.7016   -2.5082 C.2       1 <0>         0.5120
     39 O3          9.9027    8.7554   -1.4908 O.co2     1 <0>        -0.6945
     40 O4          9.4065    7.8004   -3.3148 O.co2     1 <0>        -0.6495
     41 C29         5.2047    3.6005   -9.6635 C.2       1 <0>         0.4934
     42 O5          5.1099    4.0014  -10.8111 O.co2     1 <0>        -0.6943
     43 O6          5.5395    2.4485   -9.4460 O.co2     1 <0>        -0.6928
     44 H1          0.4357    1.7456   -0.0291 H         1 <0>         0.1096
     45 H2         -0.8083    1.9409   -1.2871 H         1 <0>         0.1095
     46 H3         -1.2805    1.8660    0.4275 H         1 <0>         0.1042
     47 H4         -0.6234   -2.5189   -2.6538 H         1 <0>         0.1959
     48 H5         -1.7573   -2.7350    4.8376 H         1 <0>         0.4467
     49 H6         -1.7467   -4.1010    3.8594 H         1 <0>         0.4322
     50 H7         -1.5983    1.5969    2.7908 H         1 <0>         0.4300
     51 H8         -0.3013    1.6428    1.7239 H         1 <0>         0.4383
     52 H9         -0.6098   -0.4401   -3.7533 H         1 <0>         0.0848
     53 H10        -0.9118    1.0688   -2.8587 H         1 <0>         0.0849
     54 H11         1.7013    0.1838   -2.2545 H         1 <0>         0.3980
     55 H12        -0.3315    1.4000   -4.9727 H         1 <0>         0.1215
     56 H13         0.5273    2.6982   -6.8726 H         1 <0>         0.1359
     57 H14         4.4823    2.4852   -5.2187 H         1 <0>         0.1311
     58 H15         3.6120    1.1967   -3.3173 H         1 <0>         0.1233
     59 H16         4.9964    3.4573   -6.6832 H         1 <0>         0.3912
     60 H17         4.1628    5.2621   -8.8223 H         1 <0>         0.0837
     61 H18         6.9049    4.5254   -7.7055 H         1 <0>         0.0691
     62 H19         6.6226    5.7538   -8.9623 H         1 <0>         0.0808
     63 H20         5.1538    7.0076   -7.4069 H         1 <0>         0.0648
     64 H21         5.4360    5.7791   -6.1501 H         1 <0>         0.0627
     65 H22         7.8641    6.2792   -6.2067 H         1 <0>         0.0673
     66 H23         7.5818    7.5076   -7.4634 H         1 <0>         0.0619
     67 H24         5.9275    8.1000   -5.2523 H         1 <0>         0.3902
     68 H25         6.0042   10.7412   -5.1588 H         1 <0>         0.1197
     69 H26         5.4872   12.3975   -3.4158 H         1 <0>         0.1165
     70 H27         6.6849   12.3589   -1.2711 H         1 <0>         0.1154
     71 H28         8.4140   10.6634   -0.8436 H         1 <0>         0.1292
     72 H29        -1.4036   -3.8886    1.6010 H         1 <0>         0.4445
@<TRIPOS>BOND
     1    1    2 1
     2    1   44 1
     3    1   45 1
     4    1   46 1
     5    2    7 ar
     6    2    3 ar
     7    3    4 ar
     8    3   14 1
     9    4    5 ar
    10    4   47 1
    11    5    6 ar
    12    6   11 ar
    13    6    7 ar
    14    7    8 ar
    15    8    9 ar
    16    8   13 1
    17    9   10 ar
    18   10   11 ar
    19   10   12 1
    20   11   72 1
    21   12   48 1
    22   12   49 1
    23   13   50 1
    24   13   51 1
    25   14   15 1
    26   14   52 1
    27   14   53 1
    28   15   16 1
    29   15   54 1
    30   16   21 ar
    31   16   17 ar
    32   17   18 ar
    33   17   55 1
    34   18   19 ar
    35   18   56 1
    36   19   20 ar
    37   19   22 1
    38   20   21 ar
    39   20   57 1
    40   21   58 1
    41   22   23 2
    42   22   24 am
    43   24   25 1
    44   24   59 1
    45   25   26 1
    46   25   41 1
    47   25   60 1
    48   26   27 1
    49   26   61 1
    50   26   62 1
    51   27   28 1
    52   27   63 1
    53   27   64 1
    54   28   29 1
    55   28   65 1
    56   28   66 1
    57   29   30 am
    58   29   67 1
    59   30   31 2
    60   30   32 1
    61   32   37 ar
    62   32   33 ar
    63   33   34 ar
    64   33   68 1
    65   34   35 ar
    66   34   69 1
    67   35   36 ar
    68   35   70 1
    69   36   37 ar
    70   36   71 1
    71   37   38 1
    72   38   39 2
    73   38   40 1
    74   41   42 2
    75   41   43 1
@<TRIPOS>MOLECULE
CHEMBL150607__3
   71    74     0     0     0
SMALL
USER_CHARGES

@<TRIPOS>ATOM
      1 C1         -0.5829    1.4897   -0.3208 C.3       1 <0>        -0.1559
      2 C2         -0.7150   -0.0080   -0.4226 C.ar      1 <0>         0.0594
      3 C3         -0.5946   -0.6464   -1.6293 C.ar      1 <0>        -0.2103
      4 C4         -0.7201   -2.0284   -1.6965 C.ar      1 <0>         0.2107
      5 N1         -0.9537   -2.7551   -0.6264 N.ar      1 <0>        -0.4922
      6 C5         -1.0810   -2.1934    0.5760 C.ar      1 <0>         0.4133
      7 C6         -0.9584   -0.7886    0.7132 C.ar      1 <0>        -0.2807
      8 C7         -1.0931   -0.2198    2.0039 C.ar      1 <0>         0.5255
      9 N2         -1.3234   -1.0313    3.0263 N.ar      1 <0>        -0.6196
     10 C8         -1.4268   -2.3461    2.8551 C.ar      1 <0>         0.6218
     11 N3         -1.3198   -2.9250    1.6738 N.ar      1 <0>        -0.5922
     12 N4         -1.6675   -3.1395    3.9605 N.pl3     1 <0>        -0.8138
     13 N5         -0.9871    1.1408    2.1914 N.pl3     1 <0>        -0.8448
     14 C9         -0.3272    0.1491   -2.8809 C.3       1 <0>         0.1761
     15 N6          1.0984    0.4784   -2.9550 N.pl3     1 <0>        -0.7423
     16 C10         1.5873    1.2132   -4.0294 C.ar      1 <0>         0.2268
     17 C11         0.7199    1.6402   -5.0311 C.ar      1 <0>        -0.2082
     18 C12         1.2007    2.3676   -6.0957 C.ar      1 <0>        -0.0159
     19 C13         2.5617    2.6777   -6.1707 C.ar      1 <0>        -0.1698
     20 C14         3.4302    2.2475   -5.1633 C.ar      1 <0>        -0.0358
     21 C15         2.9423    1.5253   -4.0984 C.ar      1 <0>        -0.1997
     22 C16         3.0805    3.4568   -7.3109 C.2       1 <0>         0.5612
     23 O1          2.3240    3.8301   -8.1867 O.2       1 <0>        -0.5565
     24 N7          4.3929    3.7550   -7.3818 N.am      1 <0>        -0.6885
     25 C17         4.9081    4.5288   -8.5141 C.3       1 <0>         0.0785
     26 C18         6.1913    5.2503   -8.0971 C.3       1 <0>        -0.1052
     27 C19         5.8674    6.2826   -7.0153 C.3       1 <0>        -0.1259
     28 C20         7.1505    7.0041   -6.5982 C.3       1 <0>         0.1252
     29 N8          6.8403    7.9926   -5.5624 N.am      1 <0>        -0.7351
     30 C21         7.8233    8.7526   -5.0403 C.2       1 <0>         0.5708
     31 O2          8.9669    8.6179   -5.4287 O.2       1 <0>        -0.4943
     32 C22         7.5100    9.7512   -3.9938 C.ar      1 <0>        -0.0947
     33 C23         6.5347   10.7177   -4.2184 C.ar      1 <0>        -0.1122
     34 C24         6.2447   11.6486   -3.2376 C.ar      1 <0>        -0.1361
     35 C25         6.9191   11.6269   -2.0299 C.ar      1 <0>        -0.1264
     36 C26         7.8912   10.6743   -1.7886 C.ar      1 <0>        -0.0940
     37 C27         8.1929    9.7252   -2.7629 C.ar      1 <0>        -0.0924
     38 C28         9.2267    8.7016   -2.5082 C.2       1 <0>         0.5119
     39 O3          9.9027    8.7554   -1.4908 O.co2     1 <0>        -0.6953
     40 O4          9.4065    7.8004   -3.3148 O.co2     1 <0>        -0.6485
     41 C29         5.2047    3.6005   -9.6635 C.2       1 <0>         0.4916
     42 O5          5.0043    2.4034   -9.5477 O.co2     1 <0>        -0.6872
     43 O6          5.6451    4.0464  -10.7094 O.co2     1 <0>        -0.7006
     44 H1          0.4357    1.7456   -0.0291 H         1 <0>         0.0895
     45 H2         -0.8083    1.9409   -1.2871 H         1 <0>         0.0886
     46 H3         -1.2805    1.8660    0.4275 H         1 <0>         0.0979
     47 H4         -0.6234   -2.5189   -2.6538 H         1 <0>         0.1691
     48 H5         -1.7573   -2.7350    4.8376 H         1 <0>         0.4146
     49 H6         -1.7467   -4.1010    3.8594 H         1 <0>         0.4171
     50 H7         -1.5983    1.5969    2.7908 H         1 <0>         0.4097
     51 H8         -0.3013    1.6428    1.7239 H         1 <0>         0.4205
     52 H9         -0.6098   -0.4401   -3.7533 H         1 <0>         0.0734
     53 H10        -0.9118    1.0688   -2.8587 H         1 <0>         0.0732
     54 H11         1.7013    0.1838   -2.2545 H         1 <0>         0.3986
     55 H12        -0.3315    1.4000   -4.9727 H         1 <0>         0.1216
     56 H13         0.5273    2.6982   -6.8726 H         1 <0>         0.1322
     57 H14         4.4823    2.4852   -5.2187 H         1 <0>         0.1264
     58 H15         3.6120    1.1967   -3.3173 H         1 <0>         0.1219
     59 H16         4.9964    3.4573   -6.6832 H         1 <0>         0.3893
     60 H17         4.1628    5.2621   -8.8223 H         1 <0>         0.0824
     61 H18         6.9049    4.5254   -7.7055 H         1 <0>         0.0637
     62 H19         6.6226    5.7538   -8.9623 H         1 <0>         0.0852
     63 H20         5.1538    7.0076   -7.4069 H         1 <0>         0.0640
     64 H21         5.4360    5.7791   -6.1501 H         1 <0>         0.0637
     65 H22         7.8641    6.2792   -6.2067 H         1 <0>         0.0669
     66 H23         7.5818    7.5076   -7.4634 H         1 <0>         0.0614
     67 H24         5.9275    8.1000   -5.2523 H         1 <0>         0.3908
     68 H25         6.0042   10.7412   -5.1588 H         1 <0>         0.1197
     69 H26         5.4872   12.3975   -3.4158 H         1 <0>         0.1160
     70 H27         6.6849   12.3589   -1.2711 H         1 <0>         0.1149
     71 H28         8.4140   10.6634   -0.8436 H         1 <0>         0.1290
@<TRIPOS>BOND
     1    1    2 1
     2    1   44 1
     3    1   45 1
     4    1   46 1
     5    2    7 ar
     6    2    3 ar
     7    3    4 ar
     8    3   14 1
     9    4    5 ar
    10    4   47 1
    11    5    6 ar
    12    6   11 ar
    13    6    7 ar
    14    7    8 ar
    15    8    9 ar
    16    8   13 1
    17    9   10 ar
    18   10   11 ar
    19   10   12 1
    20   12   48 1
    21   12   49 1
    22   13   50 1
    23   13   51 1
    24   14   15 1
    25   14   52 1
    26   14   53 1
    27   15   16 1
    28   15   54 1
    29   16   21 ar
    30   16   17 ar
    31   17   18 ar
    32   17   55 1
    33   18   19 ar
    34   18   56 1
    35   19   20 ar
    36   19   22 1
    37   20   21 ar
    38   20   57 1
    39   21   58 1
    40   22   23 2
    41   22   24 am
    42   24   25 1
    43   24   59 1
    44   25   26 1
    45   25   41 1
    46   25   60 1
    47   26   27 1
    48   26   61 1
    49   26   62 1
    50   27   28 1
    51   27   63 1
    52   27   64 1
    53   28   29 1
    54   28   65 1
    55   28   66 1
    56   29   30 am
    57   29   67 1
    58   30   31 2
    59   30   32 1
    60   32   37 ar
    61   32   33 ar
    62   33   34 ar
    63   33   68 1
    64   34   35 ar
    65   34   69 1
    66   35   36 ar
    67   35   70 1
    68   36   37 ar
    69   36   71 1
    70   37   38 1
    71   38   39 2
    72   38   40 1
    73   41   42 2
    74   41   43 1
@<TRIPOS>MOLECULE
CHEMBL121433
   43    45     0     0     0
SMALL
USER_CHARGES

@<TRIPOS>ATOM
      1 C1         -0.0178    1.4608    0.0101 C.3       1 <0>         0.0840
      2 N1          0.0021   -0.0041    0.0020 N.pl3     1 <0>        -0.6242
      3 C2          0.0241   -0.7433    1.2666 C.3       1 <0>         0.1244
      4 C3         -1.4105   -1.0203    1.7205 C.3       1 <0>        -0.1102
      5 C4         -1.3938   -1.7063    3.0916 C.3       1 <0>        -0.1144
      6 C5         -2.8250   -1.7590    3.6243 C.3       1 <0>        -0.0995
      7 C6         -3.7503   -2.3416    2.5906 C.ar      1 <0>         0.2375
      8 C7         -3.4168   -2.4229    1.2608 C.ar      1 <0>        -0.2198
      9 C8         -4.3467   -2.9743    0.3702 C.ar      1 <0>         0.5312
     10 N2         -5.5140   -3.4038    0.8348 N.ar      1 <0>        -0.5765
     11 C9         -5.7968   -3.3122    2.1254 C.ar      1 <0>         0.6658
     12 N3         -4.9375   -2.7933    2.9872 N.ar      1 <0>        -0.5764
     13 N4         -7.0201   -3.7697    2.5833 N.pl3     1 <0>        -0.7927
     14 N5         -4.0520   -3.0700   -0.9800 N.pl3     1 <0>        -0.7758
     15 C10        -2.0944   -1.9527    0.7214 C.3       1 <0>        -0.0744
     16 C11        -0.0000   -0.6962   -1.2119 C.ar      1 <0>         0.2303
     17 C12         0.0131   -2.0853   -1.2209 C.ar      1 <0>        -0.2008
     18 C13         0.0111   -2.7674   -2.4217 C.ar      1 <0>        -0.0535
     19 C14        -0.0036   -2.0687   -3.6160 C.ar      1 <0>        -0.0905
     20 C15        -0.0162   -0.6840   -3.6107 C.ar      1 <0>         0.0215
     21 C16        -0.0209    0.0033   -2.4113 C.ar      1 <0>        -0.1797
     22 Cl1        -0.0333    0.1891   -5.1110 Cl        1 <0>        -0.0380
     23 Cl2        -0.0055   -2.9295   -5.1235 Cl        1 <0>        -0.0484
     24 H1          1.0048    1.8381    0.0023 H         1 <0>         0.0589
     25 H2         -0.5450    1.8219   -0.8730 H         1 <0>         0.0727
     26 H3         -0.5280    1.8123    0.9069 H         1 <0>         0.0725
     27 H4          0.5496   -1.6879    1.1262 H         1 <0>         0.0856
     28 H5          0.5371   -0.1514    2.0246 H         1 <0>         0.0914
     29 H6         -1.9624   -0.0824    1.7834 H         1 <0>         0.0892
     30 H7         -1.0033   -2.7188    2.9898 H         1 <0>         0.0845
     31 H8         -0.7681   -1.1366    3.7786 H         1 <0>         0.0997
     32 H9         -2.8528   -2.3769    4.5219 H         1 <0>         0.1120
     33 H10        -3.1537   -0.7504    3.8746 H         1 <0>         0.1192
     34 H11        -7.6587   -4.1519    1.9612 H         1 <0>         0.4449
     35 H12        -7.2389   -3.7081    3.5263 H         1 <0>         0.4301
     36 H13        -3.1976   -2.7542   -1.3136 H         1 <0>         0.4315
     37 H14        -4.7000   -3.4528   -1.5920 H         1 <0>         0.4289
     38 H15        -2.2563   -1.4202   -0.2158 H         1 <0>         0.0922
     39 H16        -1.4536   -2.8148    0.5363 H         1 <0>         0.1003
     40 H17         0.0252   -2.6315   -0.2892 H         1 <0>         0.1394
     41 H18         0.0212   -3.8473   -2.4286 H         1 <0>         0.1429
     42 H19        -0.0356    1.0832   -2.4071 H         1 <0>         0.1441
     43 H20        -5.1774   -2.7411    3.9256 H         1 <0>         0.4401
@<TRIPOS>BOND
     1    1    2 1
     2    1   24 1
     3    1   25 1
     4    1   26 1
     5    2    3 1
     6    2   16 1
     7    3    4 1
     8    3   27 1
     9    3   28 1
    10    4   15 1
    11    4    5 1
    12    4   29 1
    13    5    6 1
    14    5   30 1
    15    5   31 1
    16    6    7 1
    17    6   32 1
    18    6   33 1
    19    7   12 ar
    20    7    8 ar
    21    8    9 ar
    22    8   15 1
    23    9   10 ar
    24    9   14 1
    25   10   11 ar
    26   11   12 ar
    27   11   13 1
    28   12   43 1
    29   13   34 1
    30   13   35 1
    31   14   36 1
    32   14   37 1
    33   15   38 1
    34   15   39 1
    35   16   21 ar
    36   16   17 ar
    37   17   18 ar
    38   17   40 1
    39   18   19 ar
    40   18   41 1
    41   19   20 ar
    42   19   23 1
    43   20   21 ar
    44   20   22 1
    45   21   42 1
@<TRIPOS>MOLECULE
CHEMBL121433__1
   43    45     0     0     0
SMALL
USER_CHARGES

@<TRIPOS>ATOM
      1 C1         -0.0178    1.4608    0.0101 C.3       1 <0>         0.0813
      2 N1          0.0021   -0.0041    0.0020 N.pl3     1 <0>        -0.6276
      3 C2          0.0241   -0.7433    1.2666 C.3       1 <0>         0.1260
      4 C3         -1.4105   -1.0203    1.7205 C.3       1 <0>        -0.1126
      5 C4         -1.3924   -1.8784    2.9909 C.3       1 <0>        -0.1141
      6 C5         -2.8203   -2.3340    3.2882 C.3       1 <0>        -0.1007
      7 C6         -3.7598   -1.1586    3.2823 C.ar      1 <0>         0.2407
      8 C7         -3.4367    0.0441    2.7032 C.ar      1 <0>        -0.2213
      9 C8         -4.3794    1.0793    2.7403 C.ar      1 <0>         0.5311
     10 N2         -5.5486    0.8711    3.3343 N.ar      1 <0>        -0.5766
     11 C9         -5.8211   -0.3020    3.8855 C.ar      1 <0>         0.6662
     12 N3         -4.9496   -1.2970    3.8620 N.ar      1 <0>        -0.5760
     13 N4         -7.0462   -0.4910    4.5009 N.pl3     1 <0>        -0.7920
     14 N5         -4.0950    2.3067    2.1643 N.pl3     1 <0>        -0.7784
     15 C10        -2.1126    0.2994    2.0382 C.3       1 <0>        -0.0694
     16 C11        -0.0000   -0.6962   -1.2119 C.ar      1 <0>         0.2269
     17 C12         0.0131   -2.0853   -1.2209 C.ar      1 <0>        -0.1831
     18 C13         0.0111   -2.7674   -2.4217 C.ar      1 <0>        -0.0490
     19 C14        -0.0036   -2.0687   -3.6160 C.ar      1 <0>        -0.0860
     20 C15        -0.0162   -0.6840   -3.6107 C.ar      1 <0>         0.0187
     21 C16        -0.0209    0.0033   -2.4113 C.ar      1 <0>        -0.1796
     22 Cl1        -0.0333    0.1891   -5.1110 Cl        1 <0>        -0.0413
     23 Cl2        -0.0055   -2.9295   -5.1235 Cl        1 <0>        -0.0493
     24 H1          1.0048    1.8381    0.0023 H         1 <0>         0.0588
     25 H2         -0.5450    1.8219   -0.8730 H         1 <0>         0.0730
     26 H3         -0.5280    1.8123    0.9069 H         1 <0>         0.0673
     27 H4          0.5496   -1.6879    1.1262 H         1 <0>         0.0898
     28 H5          0.5371   -0.1514    2.0246 H         1 <0>         0.0859
     29 H6         -1.9506   -1.5416    0.9302 H         1 <0>         0.0910
     30 H7         -0.7550   -2.7489    2.8358 H         1 <0>         0.0997
     31 H8         -1.0149   -1.2885    3.8261 H         1 <0>         0.0843
     32 H9         -3.1351   -3.0507    2.5296 H         1 <0>         0.1204
     33 H10        -2.8492   -2.8135    4.2666 H         1 <0>         0.1123
     34 H11        -7.6935    0.2310    4.5250 H         1 <0>         0.4451
     35 H12        -7.2576   -1.3456    4.9082 H         1 <0>         0.4304
     36 H13        -3.2391    2.4530    1.7321 H         1 <0>         0.4300
     37 H14        -4.7519    3.0199    2.1932 H         1 <0>         0.4290
     38 H15        -1.4836    0.8912    2.7032 H         1 <0>         0.0961
     39 H16        -2.2747    0.8530    1.1134 H         1 <0>         0.0909
     40 H17         0.0252   -2.6315   -0.2892 H         1 <0>         0.1363
     41 H18         0.0212   -3.8473   -2.4286 H         1 <0>         0.1431
     42 H19        -0.0356    1.0832   -2.4071 H         1 <0>         0.1418
     43 H20        -5.1822   -2.1433    4.2751 H         1 <0>         0.4407
@<TRIPOS>BOND
     1    1    2 1
     2    1   24 1
     3    1   25 1
     4    1   26 1
     5    2    3 1
     6    2   16 1
     7    3    4 1
     8    3   27 1
     9    3   28 1
    10    4   15 1
    11    4    5 1
    12    4   29 1
    13    5    6 1
    14    5   30 1
    15    5   31 1
    16    6    7 1
    17    6   32 1
    18    6   33 1
    19    7   12 ar
    20    7    8 ar
    21    8    9 ar
    22    8   15 1
    23    9   10 ar
    24    9   14 1
    25   10   11 ar
    26   11   12 ar
    27   11   13 1
    28   12   43 1
    29   13   34 1
    30   13   35 1
    31   14   36 1
    32   14   37 1
    33   15   38 1
    34   15   39 1
    35   16   21 ar
    36   16   17 ar
    37   17   18 ar
    38   17   40 1
    39   18   19 ar
    40   18   41 1
    41   19   20 ar
    42   19   23 1
    43   20   21 ar
    44   20   22 1
    45   21   42 1
@<TRIPOS>MOLECULE
CHEMBL78104
   53    56     0     0     0
SMALL
USER_CHARGES

@<TRIPOS>ATOM
      1 C1          0.7988    2.0294    0.4446 C.3       1 <0>         0.0243
      2 O1          0.6610    0.6144    0.2996 O.3       1 <0>        -0.3149
      3 C2          1.1624   -0.1598    1.2976 C.ar      1 <0>         0.1412
      4 C3          1.7698    0.4290    2.3975 C.ar      1 <0>        -0.2000
      5 C4          2.2777   -0.3640    3.4054 C.ar      1 <0>        -0.0610
      6 C5          2.1842   -1.7458    3.3268 C.ar      1 <0>        -0.1204
      7 C6          1.5779   -2.3337    2.2370 C.ar      1 <0>        -0.0773
      8 C7          1.0640   -1.5394    1.2234 C.ar      1 <0>        -0.1515
      9 C8          1.4421   -3.8288    2.1136 C.3       1 <0>         0.0907
     10 N1          2.3668   -4.5059    3.0281 N.3       1 <0>        -0.5229
     11 C9          2.1995   -3.9906    4.3962 C.3       1 <0>         0.0564
     12 C10         2.7594   -2.5689    4.4510 C.3       1 <0>        -0.0340
     13 C11         2.3950   -1.9381    5.7703 C.ar      1 <0>        -0.0795
     14 C12         1.0660   -1.7846    6.1194 C.ar      1 <0>        -0.0573
     15 C13         0.7318   -1.2061    7.3293 C.ar      1 <0>        -0.1097
     16 C14         1.7263   -0.7813    8.1906 C.ar      1 <0>        -0.0517
     17 C15         3.0548   -0.9356    7.8420 C.ar      1 <0>        -0.0429
     18 C16         3.3893   -1.5182    6.6336 C.ar      1 <0>        -0.0537
     19 N2          4.1196   -0.4803    8.7639 N.pl3     1 <0>         0.0291
     20 O2          3.8272    0.0265    9.8219 O.2       1 <0>        -0.1487
     21 O3          5.2817   -0.6153    8.4590 O.3       1 <0>        -0.1555
     22 C17         3.7567   -4.3582    2.5762 C.3       1 <0>         0.0855
     23 C18         4.0061   -5.2789    1.4095 C.ar      1 <0>        -0.2195
     24 C19         4.0794   -4.7839    0.1221 C.ar      1 <0>         0.2069
     25 N3          4.3003   -5.6194   -0.8821 N.ar      1 <0>        -0.5717
     26 C20         4.4506   -6.9182   -0.6669 C.ar      1 <0>         0.6638
     27 N4          4.3870   -7.4325    0.5519 N.ar      1 <0>        -0.5757
     28 C21         4.1743   -6.6512    1.6061 C.ar      1 <0>         0.5454
     29 N5          4.1140   -7.1912    2.8804 N.pl3     1 <0>        -0.7679
     30 N6          4.6795   -7.7582   -1.7427 N.pl3     1 <0>        -0.7920
     31 H1          1.8560    2.2864    0.5117 H         1 <0>         0.0587
     32 H2          0.3578    2.5277   -0.4186 H         1 <0>         0.1068
     33 H3          0.2879    2.3531    1.3514 H         1 <0>         0.0594
     34 H4          1.8450    1.5043    2.4640 H         1 <0>         0.1329
     35 H5          2.7516    0.0939    4.2610 H         1 <0>         0.1238
     36 H6          0.5885   -1.9989    0.3695 H         1 <0>         0.1326
     37 H7          0.4197   -4.1184    2.3562 H         1 <0>         0.1043
     38 H8          1.6663   -4.1270    1.0894 H         1 <0>         0.0838
     39 H9          1.1409   -3.9775    4.6557 H         1 <0>         0.0958
     40 H10         2.7431   -4.6255    5.0958 H         1 <0>         0.0944
     41 H11         3.8447   -2.6035    4.3557 H         1 <0>         0.0976
     42 H12         0.2891   -2.1165    5.4466 H         1 <0>         0.1405
     43 H13        -0.3063   -1.0856    7.6017 H         1 <0>         0.1509
     44 H14         1.4651   -0.3286    9.1358 H         1 <0>         0.1567
     45 H15         4.4274   -1.6422    6.3628 H         1 <0>         0.1522
     46 H16         3.9312   -3.3270    2.2690 H         1 <0>         0.0801
     47 H17         4.4331   -4.6138    3.3918 H         1 <0>         0.1029
     48 H18         3.9575   -3.7271   -0.0641 H         1 <0>         0.2106
     49 H19         3.8733   -6.6300    3.6341 H         1 <0>         0.4338
     50 H20         4.3125   -8.1305    3.0189 H         1 <0>         0.4271
     51 H21         4.7281   -7.3943   -2.6405 H         1 <0>         0.4305
     52 H22         4.7913   -8.7110   -1.5988 H         1 <0>         0.4450
     53 H23         4.3524   -5.2756   -1.7876 H         1 <0>         0.4443
@<TRIPOS>BOND
     1    1    2 1
     2    1   31 1
     3    1   32 1
     4    1   33 1
     5    2    3 1
     6    3    8 ar
     7    3    4 ar
     8    4    5 ar
     9    4   34 1
    10    5    6 ar
    11    5   35 1
    12    6   12 1
    13    6    7 ar
    14    7    8 ar
    15    7    9 1
    16    8   36 1
    17    9   10 1
    18    9   37 1
    19    9   38 1
    20   10   11 1
    21   10   22 1
    22   11   12 1
    23   11   39 1
    24   11   40 1
    25   12   13 1
    26   12   41 1
    27   13   18 ar
    28   13   14 ar
    29   14   15 ar
    30   14   42 1
    31   15   16 ar
    32   15   43 1
    33   16   17 ar
    34   16   44 1
    35   17   18 ar
    36   17   19 1
    37   18   45 1
    38   19   20 2
    39   19   21 1
    40   22   23 1
    41   22   46 1
    42   22   47 1
    43   23   28 ar
    44   23   24 ar
    45   24   25 ar
    46   24   48 1
    47   25   26 ar
    48   25   53 1
    49   26   27 ar
    50   26   30 1
    51   27   28 ar
    52   28   29 1
    53   29   49 1
    54   29   50 1
    55   30   51 1
    56   30   52 1
@<TRIPOS>MOLECULE
CHEMBL78104__1
   52    55     0     0     0
SMALL
USER_CHARGES

@<TRIPOS>ATOM
      1 C1         -0.0639    2.0251   -0.9164 C.3       1 <0>         0.0264
      2 O1         -0.0851    0.6099   -0.7196 O.3       1 <0>        -0.3154
      3 C2          0.5479   -0.1519   -1.6501 C.ar      1 <0>         0.1364
      4 C3          1.1819    0.4492   -2.7281 C.ar      1 <0>        -0.2058
      5 C4          1.8206   -0.3313   -3.6691 C.ar      1 <0>        -0.0665
      6 C5          1.8340   -1.7128   -3.5440 C.ar      1 <0>        -0.1172
      7 C6          1.2082   -2.3128   -2.4719 C.ar      1 <0>        -0.0635
      8 C7          0.5674   -1.5310   -1.5229 C.ar      1 <0>        -0.1471
      9 C8          1.2067   -3.8078   -2.2874 C.3       1 <0>         0.0903
     10 N1          1.5534   -4.4808   -3.5431 N.3       1 <0>        -0.5185
     11 C9          2.8086   -3.9357   -4.0840 C.3       1 <0>         0.0578
     12 C10         2.5406   -2.5221   -4.6013 C.3       1 <0>        -0.0373
     13 C11         3.8491   -1.8595   -4.9474 C.ar      1 <0>        -0.0688
     14 C12         4.8116   -1.6783   -3.9716 C.ar      1 <0>        -0.0562
     15 C13         6.0117   -1.0706   -4.2890 C.ar      1 <0>        -0.1121
     16 C14         6.2498   -0.6442   -5.5825 C.ar      1 <0>        -0.0571
     17 C15         5.2879   -0.8261   -6.5582 C.ar      1 <0>        -0.0449
     18 C16         4.0892   -1.4379   -6.2416 C.ar      1 <0>        -0.0542
     19 N2          5.5426   -0.3691   -7.9428 N.pl3     1 <0>         0.0319
     20 O2          6.5921    0.1632   -8.2203 O.2       1 <0>        -0.1563
     21 O3          4.7013   -0.5283   -8.7963 O.3       1 <0>        -0.1566
     22 C17         0.4638   -4.3638   -4.5214 C.3       1 <0>         0.1103
     23 C18        -0.6478   -5.3115   -4.1509 C.ar      1 <0>        -0.3077
     24 C19        -1.8115   -4.8435   -3.5724 C.ar      1 <0>         0.2227
     25 N3         -2.7704   -5.7023   -3.2588 N.ar      1 <0>        -0.6074
     26 C20        -2.6268   -6.9986   -3.4924 C.ar      1 <0>         0.6047
     27 N4         -1.5268   -7.4874   -4.0449 N.ar      1 <0>        -0.6311
     28 C21        -0.5272   -6.6820   -4.3900 C.ar      1 <0>         0.5009
     29 N5          0.6198   -7.1954   -4.9730 N.pl3     1 <0>        -0.8280
     30 N6         -3.6516   -7.8634   -3.1503 N.pl3     1 <0>        -0.8217
     31 H1          0.9684    2.3749   -0.9283 H         1 <0>         0.0558
     32 H2         -0.5405    2.2670   -1.8664 H         1 <0>         0.0567
     33 H3         -0.6035    2.5130   -0.1046 H         1 <0>         0.1028
     34 H4          1.1749    1.5243   -2.8301 H         1 <0>         0.1287
     35 H5          2.3131    0.1362   -4.5088 H         1 <0>         0.1199
     36 H6          0.0772   -2.0001   -0.6826 H         1 <0>         0.1334
     37 H7          1.9350   -4.0765   -1.5223 H         1 <0>         0.0949
     38 H8          0.2154   -4.1299   -1.9685 H         1 <0>         0.0925
     39 H9          3.5620   -3.9009   -3.2970 H         1 <0>         0.0858
     40 H10         3.1586   -4.5649   -4.9023 H         1 <0>         0.0877
     41 H11         1.9166   -2.5755   -5.4934 H         1 <0>         0.0976
     42 H12         4.6256   -2.0114   -2.9612 H         1 <0>         0.1413
     43 H13         6.7633   -0.9285   -3.5266 H         1 <0>         0.1487
     44 H14         7.1873   -0.1687   -5.8304 H         1 <0>         0.1537
     45 H15         3.3391   -1.5834   -7.0049 H         1 <0>         0.1525
     46 H16         0.0848   -3.3419   -4.5226 H         1 <0>         0.0571
     47 H17         0.8385   -4.6136   -5.5140 H         1 <0>         0.0783
     48 H18        -1.9383   -3.7888   -3.3775 H         1 <0>         0.1586
     49 H19         1.3785   -6.6156   -5.1434 H         1 <0>         0.4137
     50 H20         0.6642   -8.1348   -5.2109 H         1 <0>         0.4044
     51 H21        -4.4624   -7.5183   -2.7447 H         1 <0>         0.4150
     52 H22        -3.5592   -8.8146   -3.3160 H         1 <0>         0.4130
@<TRIPOS>BOND
     1    1    2 1
     2    1   31 1
     3    1   32 1
     4    1   33 1
     5    2    3 1
     6    3    8 ar
     7    3    4 ar
     8    4    5 ar
     9    4   34 1
    10    5    6 ar
    11    5   35 1
    12    6   12 1
    13    6    7 ar
    14    7    8 ar
    15    7    9 1
    16    8   36 1
    17    9   10 1
    18    9   37 1
    19    9   38 1
    20   10   11 1
    21   10   22 1
    22   11   12 1
    23   11   39 1
    24   11   40 1
    25   12   13 1
    26   12   41 1
    27   13   18 ar
    28   13   14 ar
    29   14   15 ar
    30   14   42 1
    31   15   16 ar
    32   15   43 1
    33   16   17 ar
    34   16   44 1
    35   17   18 ar
    36   17   19 1
    37   18   45 1
    38   19   20 2
    39   19   21 1
    40   22   23 1
    41   22   46 1
    42   22   47 1
    43   23   28 ar
    44   23   24 ar
    45   24   25 ar
    46   24   48 1
    47   25   26 ar
    48   26   27 ar
    49   26   30 1
    50   27   28 ar
    51   28   29 1
    52   29   49 1
    53   29   50 1
    54   30   51 1
    55   30   52 1
@<TRIPOS>MOLECULE
CHEMBL78104__2
   53    56     0     0     0
SMALL
USER_CHARGES

@<TRIPOS>ATOM
      1 C1          0.1454    1.4932    0.7019 C.3       1 <0>         0.0214
      2 O1          0.1554    0.0684    0.5925 O.3       1 <0>        -0.3073
      3 C2         -1.0490   -0.5496    0.4724 C.ar      1 <0>         0.1571
      4 C3         -2.2170    0.1993    0.4543 C.ar      1 <0>        -0.1863
      5 C4         -3.4359   -0.4354    0.3332 C.ar      1 <0>        -0.0480
      6 C5         -3.5000   -1.8166    0.2286 C.ar      1 <0>        -0.1371
      7 C6         -2.3410   -2.5638    0.2435 C.ar      1 <0>        -0.0752
      8 C7         -1.1144   -1.9289    0.3620 C.ar      1 <0>        -0.1324
      9 C8         -2.3648   -4.0649    0.1235 C.3       1 <0>         0.0419
     10 N1         -3.6974   -4.5867    0.4393 N.4       1 <0>        -0.3831
     11 C9         -4.6913   -3.9033   -0.4025 C.3       1 <0>        -0.0043
     12 C10        -4.8534   -2.4687    0.1018 C.3       1 <0>        -0.0120
     13 C11        -5.6968   -1.6874   -0.8725 C.ar      1 <0>        -0.0955
     14 C12        -5.2794   -1.5361   -2.1818 C.ar      1 <0>        -0.0577
     15 C13        -6.0529   -0.8196   -3.0753 C.ar      1 <0>        -0.1071
     16 C14        -7.2444   -0.2545   -2.6600 C.ar      1 <0>        -0.0413
     17 C15        -7.6621   -0.4065   -1.3513 C.ar      1 <0>        -0.0402
     18 C16        -6.8904   -1.1269   -0.4585 C.ar      1 <0>        -0.0447
     19 N2         -8.9375    0.1990   -0.9064 N.pl3     1 <0>         0.0255
     20 O2         -9.6137    0.8265   -1.6878 O.2       1 <0>        -0.1420
     21 O3         -9.3029    0.0661    0.2383 O.3       1 <0>        -0.1487
     22 C17        -3.9993   -4.3392    1.8555 C.3       1 <0>         0.0582
     23 C18        -3.0661   -5.1501    2.7172 C.ar      1 <0>        -0.3974
     24 C19        -2.0057   -4.5505    3.3685 C.ar      1 <0>         0.2657
     25 N3         -1.2036   -5.2911    4.1191 N.ar      1 <0>        -0.5915
     26 C20        -1.4057   -6.5938    4.2518 C.ar      1 <0>         0.6303
     27 N4         -2.4102   -7.2067    3.6440 N.ar      1 <0>        -0.6187
     28 C21        -3.2571   -6.5238    2.8802 C.ar      1 <0>         0.5062
     29 N5         -4.3104   -7.1665    2.2503 N.pl3     1 <0>        -0.8369
     30 N6         -0.5453   -7.3327    5.0450 N.pl3     1 <0>        -0.7993
     31 H1          1.1687    1.8578    0.7915 H         1 <0>         0.1117
     32 H2         -0.3168    1.9226   -0.1870 H         1 <0>         0.0622
     33 H3         -0.4232    1.7858    1.5845 H         1 <0>         0.0631
     34 H4         -2.1720    1.2753    0.5350 H         1 <0>         0.1418
     35 H5         -4.3454    0.1468    0.3202 H         1 <0>         0.1332
     36 H6         -0.2058   -2.5126    0.3724 H         1 <0>         0.1445
     37 H7         -2.1001   -4.3481   -0.8953 H         1 <0>         0.1430
     38 H8         -1.6384   -4.4922    0.8147 H         1 <0>         0.1402
     39 H9         -4.3481   -3.8909   -1.4370 H         1 <0>         0.1384
     40 H10        -5.6465   -4.4243   -0.3372 H         1 <0>         0.1426
     41 H11        -5.3429   -2.4800    1.0757 H         1 <0>         0.1204
     42 H12        -4.3487   -1.9776   -2.5063 H         1 <0>         0.1420
     43 H13        -5.7265   -0.7008   -4.0980 H         1 <0>         0.1548
     44 H14        -7.8485    0.3061   -3.3580 H         1 <0>         0.1608
     45 H15        -7.2187   -1.2488    0.5631 H         1 <0>         0.1577
     46 H16        -3.8681   -3.2796    2.0752 H         1 <0>         0.1445
     47 H17        -5.0294   -4.6285    2.0634 H         1 <0>         0.1329
     48 H18        -1.8322   -3.4894    3.2665 H         1 <0>         0.1724
     49 H19        -4.8797   -6.6770    1.6362 H         1 <0>         0.4015
     50 H20        -4.4786   -8.1060    2.4235 H         1 <0>         0.4219
     51 H21         0.1946   -6.8961    5.4954 H         1 <0>         0.4247
     52 H22        -0.6821   -8.2872    5.1505 H         1 <0>         0.4224
     53 H23        -3.7240   -5.5785    0.2555 H         1 <0>         0.4237
@<TRIPOS>BOND
     1    1    2 1
     2    1   31 1
     3    1   32 1
     4    1   33 1
     5    2    3 1
     6    3    8 ar
     7    3    4 ar
     8    4    5 ar
     9    4   34 1
    10    5    6 ar
    11    5   35 1
    12    6   12 1
    13    6    7 ar
    14    7    8 ar
    15    7    9 1
    16    8   36 1
    17    9   10 1
    18    9   37 1
    19    9   38 1
    20   10   11 1
    21   10   22 1
    22   10   53 1
    23   11   12 1
    24   11   39 1
    25   11   40 1
    26   12   13 1
    27   12   41 1
    28   13   18 ar
    29   13   14 ar
    30   14   15 ar
    31   14   42 1
    32   15   16 ar
    33   15   43 1
    34   16   17 ar
    35   16   44 1
    36   17   18 ar
    37   17   19 1
    38   18   45 1
    39   19   20 2
    40   19   21 1
    41   22   23 1
    42   22   46 1
    43   22   47 1
    44   23   28 ar
    45   23   24 ar
    46   24   25 ar
    47   24   48 1
    48   25   26 ar
    49   26   27 ar
    50   26   30 1
    51   27   28 ar
    52   28   29 1
    53   29   49 1
    54   29   50 1
    55   30   51 1
    56   30   52 1
@<TRIPOS>MOLECULE
CHEMBL78104__3
   54    57     0     0     0
SMALL
USER_CHARGES

@<TRIPOS>ATOM
      1 C1          0.4988    1.5044   -0.4772 C.3       1 <0>         0.0189
      2 O1          0.4349    0.0778   -0.4262 O.3       1 <0>        -0.3067
      3 C2          0.9483   -0.5237    0.6790 C.ar      1 <0>         0.1609
      4 C3          1.4974    0.2428    1.6970 C.ar      1 <0>        -0.1802
      5 C4          2.0177   -0.3751    2.8154 C.ar      1 <0>        -0.0419
      6 C5          1.9938   -1.7569    2.9281 C.ar      1 <0>        -0.1389
      7 C6          1.4463   -2.5217    1.9194 C.ar      1 <0>        -0.0923
      8 C7          0.9200   -1.9037    0.7957 C.ar      1 <0>        -0.1399
      9 C8          1.3919   -4.0243    2.0053 C.3       1 <0>         0.0413
     10 N1          2.3445   -4.5189    3.0033 N.4       1 <0>        -0.3859
     11 C9          2.0951   -3.8370    4.2825 C.3       1 <0>        -0.0062
     12 C10         2.5768   -2.3903    4.1658 C.3       1 <0>        -0.0108
     13 C11         2.1351   -1.6156    5.3806 C.ar      1 <0>        -0.1064
     14 C12         0.7890   -1.4970    5.6732 C.ar      1 <0>        -0.0593
     15 C13         0.3840   -0.7865    6.7873 C.ar      1 <0>        -0.1044
     16 C14         1.3248   -0.1947    7.6095 C.ar      1 <0>        -0.0358
     17 C15         2.6705   -0.3140    7.3176 C.ar      1 <0>        -0.0380
     18 C16         3.0759   -1.0284    6.2054 C.ar      1 <0>        -0.0442
     19 N2          3.6778    0.3201    8.1975 N.pl3     1 <0>         0.0226
     20 O2          3.3234    0.9423    9.1717 O.2       1 <0>        -0.1343
     21 O3          4.8549    0.2157    7.9421 O.3       1 <0>        -0.1474
     22 C17         3.7153   -4.2384    2.5559 C.3       1 <0>         0.0408
     23 C18         4.0154   -5.0464    1.3197 C.ar      1 <0>        -0.3170
     24 C19         4.0343   -4.4505    0.0737 C.ar      1 <0>         0.2755
     25 N3          4.3020   -5.1883   -0.9937 N.ar      1 <0>        -0.5682
     26 C20         4.5501   -6.4849   -0.8805 C.ar      1 <0>         0.6749
     27 N4          4.5412   -7.0940    0.2954 N.ar      1 <0>        -0.5588
     28 C21         4.2864   -6.4134    1.4085 C.ar      1 <0>         0.5439
     29 N5          4.2835   -7.0520    2.6378 N.pl3     1 <0>        -0.7829
     30 N6          4.8250   -7.2212   -2.0197 N.pl3     1 <0>        -0.7654
     31 H1          1.5399    1.8235   -0.4271 H         1 <0>         0.0653
     32 H2          0.0559    1.8549   -1.4095 H         1 <0>         0.1161
     33 H3         -0.0505    1.9232    0.3659 H         1 <0>         0.0663
     34 H4          1.5178    1.3195    1.6139 H         1 <0>         0.1463
     35 H5          2.4464    0.2209    3.6075 H         1 <0>         0.1379
     36 H6          0.4897   -2.5011    0.0056 H         1 <0>         0.1439
     37 H7          0.3847   -4.3319    2.2864 H         1 <0>         0.1540
     38 H8          1.6382   -4.4490    1.0321 H         1 <0>         0.1304
     39 H9          1.0276   -3.8507    4.5025 H         1 <0>         0.1484
     40 H10         2.6421   -4.3416    5.0789 H         1 <0>         0.1505
     41 H11         3.6648   -2.3745    4.1028 H         1 <0>         0.1209
     42 H12         0.0541   -1.9593    5.0309 H         1 <0>         0.1412
     43 H13        -0.6675   -0.6933    7.0155 H         1 <0>         0.1571
     44 H14         1.0083    0.3611    8.4797 H         1 <0>         0.1639
     45 H15         4.1276   -1.1247    5.9793 H         1 <0>         0.1575
     46 H16         3.8133   -3.1768    2.3287 H         1 <0>         0.1654
     47 H17         4.4173   -4.5074    3.3451 H         1 <0>         0.1577
     48 H18         3.8327   -3.3945   -0.0294 H         1 <0>         0.2248
     49 H19         4.0240   -6.5661    3.4362 H         1 <0>         0.4209
     50 H20         4.5411   -7.9851    2.7001 H         1 <0>         0.4428
     51 H21         4.8343   -6.7872   -2.8871 H         1 <0>         0.4393
     52 H22         5.0084   -8.1712   -1.9507 H         1 <0>         0.4536
     53 H23         4.3162   -4.7735   -1.8704 H         1 <0>         0.4563
     54 H24         2.2235   -5.5136    3.1217 H         1 <0>         0.4255
@<TRIPOS>BOND
     1    1    2 1
     2    1   31 1
     3    1   32 1
     4    1   33 1
     5    2    3 1
     6    3    8 ar
     7    3    4 ar
     8    4    5 ar
     9    4   34 1
    10    5    6 ar
    11    5   35 1
    12    6   12 1
    13    6    7 ar
    14    7    8 ar
    15    7    9 1
    16    8   36 1
    17    9   10 1
    18    9   37 1
    19    9   38 1
    20   10   11 1
    21   10   22 1
    22   10   54 1
    23   11   12 1
    24   11   39 1
    25   11   40 1
    26   12   13 1
    27   12   41 1
    28   13   18 ar
    29   13   14 ar
    30   14   15 ar
    31   14   42 1
    32   15   16 ar
    33   15   43 1
    34   16   17 ar
    35   16   44 1
    36   17   18 ar
    37   17   19 1
    38   18   45 1
    39   19   20 2
    40   19   21 1
    41   22   23 1
    42   22   46 1
    43   22   47 1
    44   23   28 ar
    45   23   24 ar
    46   24   25 ar
    47   24   48 1
    48   25   26 ar
    49   25   53 1
    50   26   27 ar
    51   26   30 1
    52   27   28 ar
    53   28   29 1
    54   29   49 1
    55   29   50 1
    56   30   51 1
    57   30   52 1
@<TRIPOS>MOLECULE
CHEMBL78104__4
   53    56     0     0     0
SMALL
USER_CHARGES

@<TRIPOS>ATOM
      1 C1          0.6490    1.0634   -0.8635 C.3       1 <0>         0.0248
      2 O1          0.6331   -0.3601   -0.7384 O.3       1 <0>        -0.3158
      3 C2          1.1021   -0.8825    0.4252 C.ar      1 <0>         0.1391
      4 C3          1.5632   -0.0433    1.4294 C.ar      1 <0>        -0.1997
      5 C4          2.0352   -0.5813    2.6085 C.ar      1 <0>        -0.0661
      6 C5          2.0537   -1.9557    2.7959 C.ar      1 <0>        -0.1081
      7 C6          1.5997   -2.7924    1.7983 C.ar      1 <0>        -0.0410
      8 C7          1.1164   -2.2544    0.6154 C.ar      1 <0>        -0.1520
      9 C8          1.6119   -4.2909    1.9511 C.3       1 <0>         0.0951
     10 N1          1.7476   -4.6623    3.3630 N.3       1 <0>        -0.5351
     11 C9          2.9065   -3.9803    3.9605 C.3       1 <0>         0.0560
     12 C10         2.5747   -2.4947    4.1036 C.3       1 <0>         0.0085
     13 C11         3.8185   -1.7397    4.4959 C.ar      1 <0>        -0.0827
     14 C12         4.9218   -1.7445    3.6627 C.ar      1 <0>        -0.0577
     15 C13         6.0626   -1.0521    4.0225 C.ar      1 <0>        -0.1112
     16 C14         6.1003   -0.3543    5.2154 C.ar      1 <0>        -0.0517
     17 C15         4.9971   -0.3488    6.0480 C.ar      1 <0>        -0.0433
     18 C16         3.8544   -1.0379    5.6861 C.ar      1 <0>        -0.0511
     19 N2          5.0376    0.3979    7.3254 N.pl3     1 <0>         0.0291
     20 O2          6.0358    1.0029    7.6406 O.2       1 <0>        -0.1499
     21 O3          4.0726    0.4027    8.0537 O.3       1 <0>        -0.1543
     22 C17         1.8577   -6.1192    3.5158 C.3       1 <0>         0.0957
     23 C18         0.5017   -6.7483    3.3249 C.ar      1 <0>        -0.2225
     24 C19         0.1852   -7.4015    2.1497 C.ar      1 <0>         0.2075
     25 N3         -1.0155   -7.9445    2.0130 N.ar      1 <0>        -0.5722
     26 C20        -1.9121   -7.8684    2.9856 C.ar      1 <0>         0.6641
     27 N4         -1.6483   -7.2508    4.1271 N.ar      1 <0>        -0.5757
     28 C21        -0.4614   -6.6891    4.3343 C.ar      1 <0>         0.5458
     29 N5         -0.1863   -6.0489    5.5316 N.pl3     1 <0>        -0.7675
     30 N6         -3.1555   -8.4482    2.8038 N.pl3     1 <0>        -0.7917
     31 H1          1.6733    1.4247   -0.7720 H         1 <0>         0.0588
     32 H2          0.2492    1.3471   -1.8370 H         1 <0>         0.1060
     33 H3          0.0367    1.5041   -0.0767 H         1 <0>         0.0587
     34 H4          1.5528    1.0274    1.2882 H         1 <0>         0.1326
     35 H5          2.3930    0.0716    3.3909 H         1 <0>         0.1237
     36 H6          0.7534   -2.9085   -0.1635 H         1 <0>         0.1304
     37 H7          0.6806   -4.6999    1.5594 H         1 <0>         0.0853
     38 H8          2.4497   -4.7029    1.3887 H         1 <0>         0.0621
     39 H9          3.1153   -4.4051    4.9424 H         1 <0>         0.0912
     40 H10         3.7757   -4.1006    3.3139 H         1 <0>         0.0576
     41 H11         1.8163   -2.3661    4.8759 H         1 <0>         0.1036
     42 H12         4.8923   -2.2896    2.7308 H         1 <0>         0.1390
     43 H13         6.9246   -1.0564    3.3719 H         1 <0>         0.1502
     44 H14         6.9919    0.1862    5.4969 H         1 <0>         0.1564
     45 H15         2.9910   -1.0305    6.3349 H         1 <0>         0.1541
     46 H16         2.5486   -6.5116    2.7696 H         1 <0>         0.0763
     47 H17         2.2294   -6.3528    4.5135 H         1 <0>         0.1045
     48 H18         0.9087   -7.4685    1.3507 H         1 <0>         0.2119
     49 H19         0.6482   -5.5673    5.6434 H         1 <0>         0.4337
     50 H20        -0.8282   -6.0822    6.2580 H         1 <0>         0.4273
     51 H21        -3.3616   -8.9032    1.9723 H         1 <0>         0.4305
     52 H22        -3.8209   -8.3996    3.5079 H         1 <0>         0.4451
     53 H23        -1.2414   -8.4041    1.1892 H         1 <0>         0.4444
@<TRIPOS>BOND
     1    1    2 1
     2    1   31 1
     3    1   32 1
     4    1   33 1
     5    2    3 1
     6    3    8 ar
     7    3    4 ar
     8    4    5 ar
     9    4   34 1
    10    5    6 ar
    11    5   35 1
    12    6   12 1
    13    6    7 ar
    14    7    8 ar
    15    7    9 1
    16    8   36 1
    17    9   10 1
    18    9   37 1
    19    9   38 1
    20   10   11 1
    21   10   22 1
    22   11   12 1
    23   11   39 1
    24   11   40 1
    25   12   13 1
    26   12   41 1
    27   13   18 ar
    28   13   14 ar
    29   14   15 ar
    30   14   42 1
    31   15   16 ar
    32   15   43 1
    33   16   17 ar
    34   16   44 1
    35   17   18 ar
    36   17   19 1
    37   18   45 1
    38   19   20 2
    39   19   21 1
    40   22   23 1
    41   22   46 1
    42   22   47 1
    43   23   28 ar
    44   23   24 ar
    45   24   25 ar
    46   24   48 1
    47   25   26 ar
    48   25   53 1
    49   26   27 ar
    50   26   30 1
    51   27   28 ar
    52   28   29 1
    53   29   49 1
    54   29   50 1
    55   30   51 1
    56   30   52 1
@<TRIPOS>MOLECULE
CHEMBL78104__5
   52    55     0     0     0
SMALL
USER_CHARGES

@<TRIPOS>ATOM
      1 C1         -1.0974    1.0357   -0.1293 C.3       1 <0>         0.0268
      2 O1         -0.9454   -0.3846   -0.1731 O.3       1 <0>        -0.3164
      3 C2         -0.1592   -0.8909   -1.1592 C.ar      1 <0>         0.1342
      4 C3          0.4588   -0.0390   -2.0635 C.ar      1 <0>        -0.2057
      5 C4          1.2574   -0.5607   -3.0598 C.ar      1 <0>        -0.0706
      6 C5          1.4448   -1.9312   -3.1647 C.ar      1 <0>        -0.1063
      7 C6          0.8290   -2.7804   -2.2699 C.ar      1 <0>        -0.0290
      8 C7          0.0328   -2.2587   -1.2618 C.ar      1 <0>        -0.1499
      9 C8          0.9928   -4.2756   -2.3516 C.3       1 <0>         0.0951
     10 N1          2.1567   -4.6208   -3.1737 N.3       1 <0>        -0.5294
     11 C9          2.0778   -3.9451   -4.4785 C.3       1 <0>         0.0564
     12 C10         2.3303   -2.4520   -4.2679 C.3       1 <0>         0.0054
     13 C11         2.0294   -1.7088   -5.5439 C.ar      1 <0>        -0.0730
     14 C12         0.7568   -1.7474   -6.0827 C.ar      1 <0>        -0.0560
     15 C13         0.4808   -1.0658   -7.2530 C.ar      1 <0>        -0.1131
     16 C14         1.4773   -0.3449   -7.8845 C.ar      1 <0>        -0.0565
     17 C15         2.7494   -0.3056   -7.3454 C.ar      1 <0>        -0.0457
     18 C16         3.0243   -0.9839   -6.1724 C.ar      1 <0>        -0.0516
     19 N2          3.8164    0.4657   -8.0218 N.pl3     1 <0>         0.0320
     20 O2          3.5752    1.0613   -9.0459 O.2       1 <0>        -0.1570
     21 O3          4.9290    0.5002   -7.5502 O.3       1 <0>        -0.1559
     22 C17         2.2706   -6.0759   -3.3404 C.3       1 <0>         0.1185
     23 C18         2.7987   -6.6874   -2.0684 C.ar      1 <0>        -0.3104
     24 C19         1.9557   -7.3590   -1.2045 C.ar      1 <0>         0.2221
     25 N3          2.4511   -7.8859   -0.0944 N.ar      1 <0>        -0.6079
     26 C20         3.7393   -7.7768    0.1954 C.ar      1 <0>         0.6055
     27 N4          4.5803   -7.1407   -0.6059 N.ar      1 <0>        -0.6311
     28 C21         4.1525   -6.5931   -1.7391 C.ar      1 <0>         0.5022
     29 N5          5.0356   -5.9334   -2.5782 N.pl3     1 <0>        -0.8276
     30 N6          4.2180   -8.3411    1.3649 N.pl3     1 <0>        -0.8215
     31 H1         -0.1213    1.5015    0.0061 H         1 <0>         0.0564
     32 H2         -1.5391    1.3827   -1.0634 H         1 <0>         0.0559
     33 H3         -1.7476    1.3060    0.7027 H         1 <0>         0.1023
     34 H4          0.3149    1.0286   -1.9876 H         1 <0>         0.1286
     35 H5          1.7395    0.1021   -3.7631 H         1 <0>         0.1203
     36 H6         -0.4438   -2.9226   -0.5557 H         1 <0>         0.1321
     37 H7          1.1293   -4.6779   -1.3478 H         1 <0>         0.0928
     38 H8          0.0974   -4.7118   -2.7946 H         1 <0>         0.0556
     39 H9          2.8343   -4.3534   -5.1488 H         1 <0>         0.0854
     40 H10         1.0866   -4.0918   -4.9076 H         1 <0>         0.0476
     41 H11         3.3747   -2.2961   -3.9977 H         1 <0>         0.1029
     42 H12        -0.0217   -2.3105   -5.5894 H         1 <0>         0.1402
     43 H13        -0.5131   -1.0965   -7.6743 H         1 <0>         0.1484
     44 H14         1.2619    0.1871   -8.7994 H         1 <0>         0.1536
     45 H15         4.0173   -0.9501   -5.7491 H         1 <0>         0.1541
     46 H16         1.2891   -6.4938   -3.5643 H         1 <0>         0.0530
     47 H17         2.9546   -6.2952   -4.1603 H         1 <0>         0.0809
     48 H18         0.9040   -7.4533   -1.4314 H         1 <0>         0.1599
     49 H19         4.7033   -5.4628   -3.3586 H         1 <0>         0.4137
     50 H20         5.9862   -5.9422   -2.3854 H         1 <0>         0.4047
     51 H21         3.6125   -8.8094    1.9607 H         1 <0>         0.4150
     52 H22         5.1590   -8.2683    1.5889 H         1 <0>         0.4131
@<TRIPOS>BOND
     1    1    2 1
     2    1   31 1
     3    1   32 1
     4    1   33 1
     5    2    3 1
     6    3    8 ar
     7    3    4 ar
     8    4    5 ar
     9    4   34 1
    10    5    6 ar
    11    5   35 1
    12    6   12 1
    13    6    7 ar
    14    7    8 ar
    15    7    9 1
    16    8   36 1
    17    9   10 1
    18    9   37 1
    19    9   38 1
    20   10   11 1
    21   10   22 1
    22   11   12 1
    23   11   39 1
    24   11   40 1
    25   12   13 1
    26   12   41 1
    27   13   18 ar
    28   13   14 ar
    29   14   15 ar
    30   14   42 1
    31   15   16 ar
    32   15   43 1
    33   16   17 ar
    34   16   44 1
    35   17   18 ar
    36   17   19 1
    37   18   45 1
    38   19   20 2
    39   19   21 1
    40   22   23 1
    41   22   46 1
    42   22   47 1
    43   23   28 ar
    44   23   24 ar
    45   24   25 ar
    46   24   48 1
    47   25   26 ar
    48   26   27 ar
    49   26   30 1
    50   27   28 ar
    51   28   29 1
    52   29   49 1
    53   29   50 1
    54   30   51 1
    55   30   52 1
@<TRIPOS>MOLECULE
CHEMBL78104__6
   53    56     0     0     0
SMALL
USER_CHARGES

@<TRIPOS>ATOM
      1 C1          0.6072    0.9723    0.6627 C.3       1 <0>         0.0215
      2 O1          0.5024   -0.4454    0.5167 O.3       1 <0>        -0.3080
      3 C2         -0.7502   -0.9718    0.4889 C.ar      1 <0>         0.1548
      4 C3         -1.8568   -0.1413    0.5939 C.ar      1 <0>        -0.1861
      5 C4         -3.1252   -0.6829    0.5628 C.ar      1 <0>        -0.0501
      6 C5         -3.3001   -2.0519    0.4283 C.ar      1 <0>        -0.1352
      7 C6         -2.2024   -2.8806    0.3264 C.ar      1 <0>        -0.0804
      8 C7         -0.9266   -2.3387    0.3498 C.ar      1 <0>        -0.1317
      9 C8         -2.3469   -4.3733    0.1884 C.3       1 <0>         0.0457
     10 N1         -3.6988   -4.7217   -0.2578 N.4       1 <0>        -0.3870
     11 C9         -4.6769   -4.1074    0.6530 C.3       1 <0>        -0.0048
     12 C10        -4.7040   -2.6004    0.3952 C.3       1 <0>        -0.0117
     13 C11        -5.5311   -1.9250    1.4585 C.ar      1 <0>        -0.0949
     14 C12        -5.1606   -2.0205    2.7871 C.ar      1 <0>        -0.0573
     15 C13        -5.9192   -1.4010    3.7623 C.ar      1 <0>        -0.1070
     16 C14        -7.0482   -0.6854    3.4092 C.ar      1 <0>        -0.0412
     17 C15        -7.4181   -0.5891    2.0810 C.ar      1 <0>        -0.0404
     18 C16        -6.6568   -1.2052    1.1050 C.ar      1 <0>        -0.0447
     19 N2         -8.6271    0.1766    1.7030 N.pl3     1 <0>         0.0256
     20 O2         -9.2911    0.7178    2.5561 O.2       1 <0>        -0.1415
     21 O3         -8.9506    0.2609    0.5411 O.3       1 <0>        -0.1493
     22 C17        -3.8610   -6.1816   -0.2412 C.3       1 <0>         0.0689
     23 C18        -2.9447   -6.8004   -1.2651 C.ar      1 <0>        -0.4033
     24 C19        -1.7664   -7.4107   -0.8814 C.ar      1 <0>         0.2638
     25 N3         -0.9827   -7.9458   -1.8059 N.ar      1 <0>        -0.5922
     26 C20        -1.3142   -7.9028   -3.0880 C.ar      1 <0>         0.6313
     27 N4         -2.4346   -7.3269   -3.4970 N.ar      1 <0>        -0.6192
     28 C21        -3.2703   -6.7751   -2.6228 C.ar      1 <0>         0.5079
     29 N5         -4.4443   -6.1786   -3.0530 N.pl3     1 <0>        -0.8361
     30 N6         -0.4686   -8.4734   -4.0231 N.pl3     1 <0>        -0.7988
     31 H1          1.6585    1.2600    0.6699 H         1 <0>         0.1119
     32 H2          0.1023    1.4616   -0.1702 H         1 <0>         0.0624
     33 H3          0.1408    1.2766    1.5997 H         1 <0>         0.0625
     34 H4         -1.7256    0.9254    0.7000 H         1 <0>         0.1418
     35 H5         -3.9870   -0.0370    0.6440 H         1 <0>         0.1330
     36 H6         -0.0662   -2.9856    0.2633 H         1 <0>         0.1442
     37 H7         -1.6229   -4.7386   -0.5399 H         1 <0>         0.1393
     38 H8         -2.1544   -4.8437    1.1526 H         1 <0>         0.1451
     39 H9         -5.6650   -4.5284    0.4669 H         1 <0>         0.1431
     40 H10        -4.3843   -4.2966    1.6858 H         1 <0>         0.1397
     41 H11        -5.1453   -2.4079   -0.5827 H         1 <0>         0.1181
     42 H12        -4.2787   -2.5796    3.0629 H         1 <0>         0.1425
     43 H13        -5.6302   -1.4763    4.8002 H         1 <0>         0.1552
     44 H14        -7.6414   -0.2019    4.1713 H         1 <0>         0.1610
     45 H15        -6.9437   -1.1269    0.0668 H         1 <0>         0.1575
     46 H16        -3.6108   -6.5637    0.7485 H         1 <0>         0.1442
     47 H17        -4.8943   -6.4351   -0.4780 H         1 <0>         0.1339
     48 H18        -1.4869   -7.4508    0.1610 H         1 <0>         0.1751
     49 H19        -5.0040   -5.6991   -2.4224 H         1 <0>         0.4020
     50 H20        -4.7066   -6.2404   -3.9848 H         1 <0>         0.4220
     51 H21         0.3552   -8.8980   -3.7368 H         1 <0>         0.4249
     52 H22        -0.6996   -8.4487   -4.9649 H         1 <0>         0.4227
     53 H23        -3.8452   -4.3750   -1.1940 H         1 <0>         0.4192
@<TRIPOS>BOND
     1    1    2 1
     2    1   31 1
     3    1   32 1
     4    1   33 1
     5    2    3 1
     6    3    8 ar
     7    3    4 ar
     8    4    5 ar
     9    4   34 1
    10    5    6 ar
    11    5   35 1
    12    6   12 1
    13    6    7 ar
    14    7    8 ar
    15    7    9 1
    16    8   36 1
    17    9   10 1
    18    9   37 1
    19    9   38 1
    20   10   11 1
    21   10   22 1
    22   10   53 1
    23   11   12 1
    24   11   39 1
    25   11   40 1
    26   12   13 1
    27   12   41 1
    28   13   18 ar
    29   13   14 ar
    30   14   15 ar
    31   14   42 1
    32   15   16 ar
    33   15   43 1
    34   16   17 ar
    35   16   44 1
    36   17   18 ar
    37   17   19 1
    38   18   45 1
    39   19   20 2
    40   19   21 1
    41   22   23 1
    42   22   46 1
    43   22   47 1
    44   23   28 ar
    45   23   24 ar
    46   24   25 ar
    47   24   48 1
    48   25   26 ar
    49   26   27 ar
    50   26   30 1
    51   27   28 ar
    52   28   29 1
    53   29   49 1
    54   29   50 1
    55   30   51 1
    56   30   52 1
@<TRIPOS>MOLECULE
CHEMBL78104__7
   54    57     0     0     0
SMALL
USER_CHARGES

@<TRIPOS>ATOM
      1 C1          0.2471    0.9757   -0.8558 C.3       1 <0>         0.0193
      2 O1          0.2088   -0.4427   -0.6871 O.3       1 <0>        -0.3073
      3 C2          0.8238   -0.9500    0.4135 C.ar      1 <0>         0.1591
      4 C3          1.4469   -0.1005    1.3164 C.ar      1 <0>        -0.1793
      5 C4          2.0674   -0.6228    2.4324 C.ar      1 <0>        -0.0457
      6 C5          2.0727   -1.9913    2.6558 C.ar      1 <0>        -0.1348
      7 C6          1.4568   -2.8388    1.7590 C.ar      1 <0>        -0.0931
      8 C7          0.8259   -2.3165    0.6406 C.ar      1 <0>        -0.1341
      9 C8          1.4470   -4.3316    1.9585 C.3       1 <0>         0.0444
     10 N1          1.7450   -4.6677    3.3536 N.4       1 <0>        -0.3918
     11 C9          3.0069   -4.0202    3.7431 C.3       1 <0>        -0.0059
     12 C10         2.7594   -2.5184    3.8902 C.3       1 <0>        -0.0089
     13 C11         4.0764   -1.8090    4.0725 C.ar      1 <0>        -0.1044
     14 C12         5.0440   -1.8838    3.0878 C.ar      1 <0>        -0.0594
     15 C13         6.2519   -1.2332    3.2550 C.ar      1 <0>        -0.1052
     16 C14         6.4924   -0.5072    4.4068 C.ar      1 <0>        -0.0364
     17 C15         5.5248   -0.4318    5.3908 C.ar      1 <0>        -0.0378
     18 C16         4.3148   -1.0790    5.2217 C.ar      1 <0>        -0.0438
     19 N2          5.7825    0.3450    6.6242 N.pl3     1 <0>         0.0226
     20 O2          6.8394    0.9134    6.7708 O.2       1 <0>        -0.1346
     21 O3          4.9361    0.4110    7.4849 O.3       1 <0>        -0.1469
     22 C17         1.8770   -6.1243    3.4908 C.3       1 <0>         0.0535
     23 C18         0.5481   -6.7777    3.2113 C.ar      1 <0>        -0.3229
     24 C19         0.3068   -7.3984    2.0012 C.ar      1 <0>         0.2752
     25 N3         -0.8718   -7.9641    1.7865 N.ar      1 <0>        -0.5688
     26 C20        -1.8174   -7.9411    2.7143 C.ar      1 <0>         0.6750
     27 N4         -1.6261   -7.3561    3.8870 N.ar      1 <0>        -0.5592
     28 C21        -0.4653   -6.7745    4.1720 C.ar      1 <0>         0.5440
     29 N5         -0.2661   -6.1684    5.4017 N.pl3     1 <0>        -0.7819
     30 N6         -3.0355   -8.5430    2.4513 N.pl3     1 <0>        -0.7652
     31 H1          1.2839    1.3059   -0.9213 H         1 <0>         0.0656
     32 H2         -0.2792    1.2472   -1.7709 H         1 <0>         0.1156
     33 H3         -0.2340    1.4561   -0.0038 H         1 <0>         0.0650
     34 H4          1.4465    0.9660    1.1460 H         1 <0>         0.1459
     35 H5          2.5522    0.0379    3.1359 H         1 <0>         0.1367
     36 H6          0.3373   -2.9784   -0.0591 H         1 <0>         0.1419
     37 H7          0.4637   -4.7226    1.6968 H         1 <0>         0.1308
     38 H8          2.1974   -4.7855    1.3113 H         1 <0>         0.1500
     39 H9          3.3501   -4.4294    4.6933 H         1 <0>         0.1499
     40 H10         3.7597   -4.1933    2.9740 H         1 <0>         0.1470
     41 H11         2.1284   -2.3387    4.7606 H         1 <0>         0.1201
     42 H12         4.8561   -2.4509    2.1881 H         1 <0>         0.1410
     43 H13         7.0080   -1.2922    2.4861 H         1 <0>         0.1569
     44 H14         7.4365    0.0006    4.5378 H         1 <0>         0.1638
     45 H15         3.5573   -1.0170    5.9889 H         1 <0>         0.1578
     46 H16         2.6184   -6.4904    2.7807 H         1 <0>         0.1661
     47 H17         2.1948   -6.3663    4.5050 H         1 <0>         0.1575
     48 H18         1.0707   -7.4220    1.2380 H         1 <0>         0.2278
     49 H19         0.5476   -5.6678    5.5695 H         1 <0>         0.4214
     50 H20        -0.9402   -6.2448    6.0950 H         1 <0>         0.4428
     51 H21        -3.1886   -8.9747    1.5962 H         1 <0>         0.4394
     52 H22        -3.7362   -8.5333    3.1220 H         1 <0>         0.4537
     53 H23        -1.0450   -8.4010    0.9379 H         1 <0>         0.4566
     54 H24         0.9989   -4.3376    3.9472 H         1 <0>         0.4213
@<TRIPOS>BOND
     1    1    2 1
     2    1   31 1
     3    1   32 1
     4    1   33 1
     5    2    3 1
     6    3    8 ar
     7    3    4 ar
     8    4    5 ar
     9    4   34 1
    10    5    6 ar
    11    5   35 1
    12    6   12 1
    13    6    7 ar
    14    7    8 ar
    15    7    9 1
    16    8   36 1
    17    9   10 1
    18    9   37 1
    19    9   38 1
    20   10   11 1
    21   10   22 1
    22   10   54 1
    23   11   12 1
    24   11   39 1
    25   11   40 1
    26   12   13 1
    27   12   41 1
    28   13   18 ar
    29   13   14 ar
    30   14   15 ar
    31   14   42 1
    32   15   16 ar
    33   15   43 1
    34   16   17 ar
    35   16   44 1
    36   17   18 ar
    37   17   19 1
    38   18   45 1
    39   19   20 2
    40   19   21 1
    41   22   23 1
    42   22   46 1
    43   22   47 1
    44   23   28 ar
    45   23   24 ar
    46   24   25 ar
    47   24   48 1
    48   25   26 ar
    49   25   53 1
    50   26   27 ar
    51   26   30 1
    52   27   28 ar
    53   28   29 1
    54   29   49 1
    55   29   50 1
    56   30   51 1
    57   30   52 1
@<TRIPOS>MOLECULE
CHEMBL34259
   53    55     0     0     0
SMALL
USER_CHARGES

@<TRIPOS>ATOM
      1 C1         -0.0178    1.4608    0.0101 C.3       1 <0>         0.0943
      2 N1          0.0021   -0.0041    0.0020 N.pl3     1 <0>        -0.6229
      3 C2          0.0241   -0.7433    1.2666 C.3       1 <0>         0.1846
      4 C3         -1.3889   -1.0161    1.7137 C.ar      1 <0>         0.0299
      5 C4         -1.9892   -2.2351    1.3999 C.ar      1 <0>         0.1556
      6 N2         -3.2219   -2.4965    1.7797 N.ar      1 <0>        -0.4373
      7 C5         -3.9051   -1.5830    2.4739 C.ar      1 <0>         0.3718
      8 C6         -3.2902   -0.3458    2.7901 C.ar      1 <0>        -0.0918
      9 N3         -2.0425   -0.1038    2.4012 N.ar      1 <0>        -0.3728
     10 C7         -4.0706    0.6301    3.5527 C.ar      1 <0>         0.5432
     11 N4         -5.3055    0.2953    3.9004 N.ar      1 <0>        -0.6300
     12 C8         -5.8196   -0.8850    3.5693 C.ar      1 <0>         0.6362
     13 N5         -5.1609   -1.7987    2.8845 N.ar      1 <0>        -0.5990
     14 N6         -7.1130   -1.1692    3.9639 N.pl3     1 <0>        -0.8099
     15 N7         -3.5402    1.8539    3.8976 N.pl3     1 <0>        -0.7943
     16 C9          0.0000   -0.6928   -1.2059 C.ar      1 <0>         0.2179
     17 C10         0.0132   -2.0849   -1.2118 C.ar      1 <0>        -0.2113
     18 C11         0.0112   -2.7693   -2.4056 C.ar      1 <0>        -0.0159
     19 C12        -0.0041   -2.0653   -3.6133 C.ar      1 <0>        -0.1590
     20 C13        -0.0173   -0.6674   -3.6040 C.ar      1 <0>        -0.0366
     21 C14        -0.0210    0.0112   -2.4068 C.ar      1 <0>        -0.1985
     22 C15        -0.0058   -2.7960   -4.8948 C.2       1 <0>         0.5556
     23 O1          0.0061   -4.0119   -4.9015 O.2       1 <0>        -0.5600
     24 N8         -0.0205   -2.1158   -6.0583 N.am      1 <0>        -0.6793
     25 C16        -0.0222   -2.8414   -7.3310 C.3       1 <0>         0.0733
     26 H1         -0.6020   -3.7584   -7.2256 H         1 <0>         0.0773
     27 C17        -0.6480   -1.9644   -8.4172 C.3       1 <0>        -0.0801
     28 C18        -2.1222   -1.7198   -8.0888 C.3       1 <0>        -0.1777
     29 C19        -2.7386   -0.8559   -9.1588 C.2       1 <0>         0.4909
     30 O2         -2.0616   -0.4715  -10.0971 O.co2     1 <0>        -0.6975
     31 O3         -3.9143   -0.5414   -9.0862 O.co2     1 <0>        -0.7207
     32 C20         1.3940   -3.1839   -7.7158 C.2       1 <0>         0.4958
     33 O4          2.3190   -2.8526   -6.9939 O.co2     1 <0>        -0.6970
     34 O5          1.6147   -3.7923   -8.7491 O.co2     1 <0>        -0.7014
     35 H2          1.0048    1.8381    0.0023 H         1 <0>         0.0502
     36 H3         -0.5450    1.8219   -0.8730 H         1 <0>         0.0690
     37 H4         -0.5280    1.8123    0.9069 H         1 <0>         0.0657
     38 H5          0.5496   -1.6879    1.1262 H         1 <0>         0.1015
     39 H6          0.5371   -0.1514    2.0246 H         1 <0>         0.0948
     40 H7         -1.4361   -2.9733    0.8382 H         1 <0>         0.1815
     41 H8         -7.6209   -0.5150    4.4689 H         1 <0>         0.4148
     42 H9         -7.5132   -2.0229    3.7358 H         1 <0>         0.4190
     43 H10        -2.6346    2.0814    3.6347 H         1 <0>         0.4250
     44 H11        -4.0722    2.4880    4.4032 H         1 <0>         0.4139
     45 H12         0.0253   -2.6282   -0.2785 H         1 <0>         0.1208
     46 H13         0.0217   -3.8493   -2.4096 H         1 <0>         0.1351
     47 H14        -0.0287   -0.1208   -4.5353 H         1 <0>         0.1282
     48 H15        -0.0359    1.0910   -2.3989 H         1 <0>         0.1244
     49 H16        -0.0300   -1.1459   -6.0530 H         1 <0>         0.3877
     50 H17        -0.1225   -1.0104   -8.4615 H         1 <0>         0.0543
     51 H18        -0.5691   -2.4677   -9.3808 H         1 <0>         0.0783
     52 H19        -2.6477   -2.6737   -8.0445 H         1 <0>         0.0522
     53 H20        -2.2011   -1.2164   -7.1252 H         1 <0>         0.0501
@<TRIPOS>BOND
     1    1    2 1
     2    1   35 1
     3    1   36 1
     4    1   37 1
     5    2    3 1
     6    2   16 1
     7    3    4 1
     8    3   38 1
     9    3   39 1
    10    4    9 ar
    11    4    5 ar
    12    5    6 ar
    13    5   40 1
    14    6    7 ar
    15    7   13 ar
    16    7    8 ar
    17    8    9 ar
    18    8   10 ar
    19   10   11 ar
    20   10   15 1
    21   11   12 ar
    22   12   13 ar
    23   12   14 1
    24   14   41 1
    25   14   42 1
    26   15   43 1
    27   15   44 1
    28   16   21 ar
    29   16   17 ar
    30   17   18 ar
    31   17   45 1
    32   18   19 ar
    33   18   46 1
    34   19   20 ar
    35   19   22 1
    36   20   21 ar
    37   20   47 1
    38   21   48 1
    39   22   23 2
    40   22   24 am
    41   24   25 1
    42   24   49 1
    43   25   26 1
    44   25   27 1
    45   25   32 1
    46   27   28 1
    47   27   50 1
    48   27   51 1
    49   28   29 1
    50   28   52 1
    51   28   53 1
    52   29   30 2
    53   29   31 1
    54   32   33 2
    55   32   34 1
@<TRIPOS>MOLECULE
CHEMBL144839
   44    48     0     0     0
SMALL
USER_CHARGES

@<TRIPOS>ATOM
      1 C1         -0.0167    1.3769    0.0096 C.ar      1 <0>        -0.1528
      2 C2          1.1692    2.0891    0.0021 C.ar      1 <0>        -0.0872
      3 C3          2.3749    1.4171   -0.0157 C.ar      1 <0>        -0.1586
      4 C4          2.3961    0.0271   -0.0236 C.ar      1 <0>         0.1937
      5 C5          1.2072   -0.6869   -0.0117 C.ar      1 <0>        -0.1303
      6 C6          0.0021   -0.0041    0.0020 C.ar      1 <0>        -0.0843
      7 C7          1.1987   -2.1891   -0.0048 C.3       1 <0>        -0.0265
      8 C8          2.5217   -2.7578   -0.4325 C.ar      1 <0>        -0.1303
      9 C9          2.5906   -4.0827   -0.8306 C.ar      1 <0>        -0.0805
     10 C10         3.7961   -4.6303   -1.2242 C.ar      1 <0>        -0.1525
     11 C11         4.9446   -3.8596   -1.2221 C.ar      1 <0>        -0.0813
     12 C12         4.8848   -2.5379   -0.8281 C.ar      1 <0>        -0.1750
     13 C13         3.6722   -1.9837   -0.4340 C.ar      1 <0>         0.1895
     14 N1          3.6208   -0.6434   -0.0460 N.pl3     1 <0>        -0.5526
     15 C14         4.8489    0.0577    0.3370 C.3       1 <0>         0.1741
     16 C15         5.0764   -0.1006    1.8183 C.ar      1 <0>         0.0162
     17 C16         5.9108   -1.1163    2.2840 C.ar      1 <0>         0.1556
     18 N2          6.1252   -1.2742    3.5729 N.ar      1 <0>        -0.4397
     19 C17         5.5364   -0.4514    4.4443 C.ar      1 <0>         0.3778
     20 C18         4.6893    0.5792    3.9656 C.ar      1 <0>        -0.0907
     21 N3          4.4901    0.7244    2.6595 N.ar      1 <0>        -0.3590
     22 C19         4.0621    1.4614    4.9512 C.ar      1 <0>         0.5463
     23 N4          4.3259    1.2410    6.2317 N.ar      1 <0>        -0.6283
     24 C20         5.1317    0.2538    6.6102 C.ar      1 <0>         0.6422
     25 N5          5.7212   -0.5682    5.7651 N.ar      1 <0>        -0.6025
     26 N6          5.3635    0.0802    7.9614 N.pl3     1 <0>        -0.8055
     27 N7          3.2270    2.4855    4.5616 N.pl3     1 <0>        -0.7898
     28 H1         -0.9601    1.9024    0.0259 H         1 <0>         0.1216
     29 H2          1.1518    3.1689    0.0098 H         1 <0>         0.1246
     30 H3          3.3018    1.9712   -0.0231 H         1 <0>         0.1266
     31 H4         -0.9273   -0.5542    0.0074 H         1 <0>         0.1235
     32 H5          0.9712   -2.5381    1.0024 H         1 <0>         0.0793
     33 H6          0.4238   -2.5428   -0.6849 H         1 <0>         0.0828
     34 H7          1.6978   -4.6904   -0.8331 H         1 <0>         0.1248
     35 H8          3.8421   -5.6638   -1.5342 H         1 <0>         0.1234
     36 H9          5.8863   -4.2911   -1.5278 H         1 <0>         0.1274
     37 H10         5.7804   -1.9342   -0.8259 H         1 <0>         0.1273
     38 H11         5.6933   -0.3648   -0.2075 H         1 <0>         0.1077
     39 H12         4.7535    1.1162    0.0952 H         1 <0>         0.1061
     40 H13         6.3864   -1.7816    1.5786 H         1 <0>         0.1766
     41 H14         4.9426    0.6707    8.6055 H         1 <0>         0.4176
     42 H15         5.9472   -0.6323    8.2656 H         1 <0>         0.4202
     43 H16         3.0458    2.6319    3.6200 H         1 <0>         0.4260
     44 H17         2.8203    3.0601    5.2289 H         1 <0>         0.4166
@<TRIPOS>BOND
     1    1    6 ar
     2    1    2 ar
     3    1   28 1
     4    2    3 ar
     5    2   29 1
     6    3    4 ar
     7    3   30 1
     8    4   14 1
     9    4    5 ar
    10    5    6 ar
    11    5    7 1
    12    6   31 1
    13    7    8 1
    14    7   32 1
    15    7   33 1
    16    8   13 ar
    17    8    9 ar
    18    9   10 ar
    19    9   34 1
    20   10   11 ar
    21   10   35 1
    22   11   12 ar
    23   11   36 1
    24   12   13 ar
    25   12   37 1
    26   13   14 1
    27   14   15 1
    28   15   16 1
    29   15   38 1
    30   15   39 1
    31   16   21 ar
    32   16   17 ar
    33   17   18 ar
    34   17   40 1
    35   18   19 ar
    36   19   25 ar
    37   19   20 ar
    38   20   21 ar
    39   20   22 ar
    40   22   23 ar
    41   22   27 1
    42   23   24 ar
    43   24   25 ar
    44   24   26 1
    45   26   41 1
    46   26   42 1
    47   27   43 1
    48   27   44 1
@<TRIPOS>MOLECULE
CHEMBL226952
   42    45     0     0     0
SMALL
USER_CHARGES

@<TRIPOS>ATOM
      1 C1         -0.3155    1.8122   -0.0633 C.3       1 <0>        -0.1533
      2 C2         -0.1133    0.2966   -0.0113 C.3       1 <0>        -0.0754
      3 C3         -1.4552   -0.3889    0.0096 C.2       1 <0>        -0.0081
      4 C4         -2.2371   -0.7405    1.1950 C.ar      1 <0>        -0.2569
      5 C5         -2.0577   -0.5932    2.5793 C.ar      1 <0>         0.5837
      6 N1         -3.0064   -1.0460    3.3925 N.ar      1 <0>        -0.5874
      7 C6         -4.0994   -1.6246    2.9109 C.ar      1 <0>         0.7000
      8 N2         -4.3072   -1.7829    1.6149 N.ar      1 <0>        -0.5738
      9 C7         -3.4096   -1.3592    0.7260 C.ar      1 <0>         0.3597
     10 N3         -3.3407   -1.3797   -0.6431 N.pl3     1 <0>        -0.5179
     11 H1         -4.0192   -1.7505   -1.2288 H         1 <0>         0.4387
     12 C8         -2.1714   -0.7922   -1.0635 C.2       1 <0>        -0.0035
     13 S1         -1.6793   -0.5979   -2.7443 S.3       1 <0>         0.1071
     14 C9         -0.4791   -1.8651   -2.9862 C.ar      1 <0>        -0.1201
     15 C10        -0.2288   -2.7866   -1.9899 C.ar      1 <0>        -0.1087
     16 C11         0.7167   -3.7905   -2.1713 C.ar      1 <0>        -0.1123
     17 C12         1.4202   -3.8927   -3.3332 C.ar      1 <0>        -0.0854
     18 C13         1.1958   -2.9744   -4.3730 C.ar      1 <0>        -0.0414
     19 C14         0.2314   -1.9506   -4.2034 C.ar      1 <0>        -0.0215
     20 C15         0.0047   -1.0378   -5.2446 C.ar      1 <0>        -0.1170
     21 C16         0.7088   -1.1501   -6.4050 C.ar      1 <0>        -0.0955
     22 C17         1.6535   -2.1600   -6.5753 C.ar      1 <0>        -0.1086
     23 C18         1.9077   -3.0558   -5.5824 C.ar      1 <0>        -0.0996
     24 N4         -5.0596   -2.0807    3.8007 N.pl3     1 <0>        -0.7888
     25 N5         -0.9188    0.0094    3.0858 N.pl3     1 <0>        -0.7733
     26 H2          0.6551    2.3080   -0.0784 H         1 <0>         0.0771
     27 H3         -0.8712    2.0739   -0.9638 H         1 <0>         0.0707
     28 H4         -0.8745    2.1346    0.8151 H         1 <0>         0.0561
     29 H5          0.4457   -0.0258   -0.8897 H         1 <0>         0.1001
     30 H6          0.4424    0.0349    0.8892 H         1 <0>         0.0786
     31 H7         -0.7728   -2.7275   -1.0588 H         1 <0>         0.1157
     32 H8          0.8962   -4.5006   -1.3776 H         1 <0>         0.1283
     33 H9          2.1505   -4.6789   -3.4552 H         1 <0>         0.1351
     34 H10        -0.7248   -0.2503   -5.1266 H         1 <0>         0.1274
     35 H11         0.5320   -0.4464   -7.2050 H         1 <0>         0.1312
     36 H12         2.1986   -2.2274   -7.5052 H         1 <0>         0.1315
     37 H13         2.6431   -3.8333   -5.7281 H         1 <0>         0.1348
     38 H14        -4.9256   -1.9743    4.7555 H         1 <0>         0.4472
     39 H15        -5.8655   -2.5064    3.4685 H         1 <0>         0.4301
     40 H16        -0.2332    0.3355    2.4820 H         1 <0>         0.4299
     41 H17        -0.8063    0.1053    4.0445 H         1 <0>         0.4297
     42 H18        -5.1213   -2.2117    1.3080 H         1 <0>         0.4356
@<TRIPOS>BOND
     1    1    2 1
     2    1   26 1
     3    1   27 1
     4    1   28 1
     5    2    3 1
     6    2   29 1
     7    2   30 1
     8    3   12 2
     9    3    4 1
    10    4    9 ar
    11    4    5 ar
    12    5    6 ar
    13    5   25 1
    14    6    7 ar
    15    7    8 ar
    16    7   24 1
    17    8    9 ar
    18    8   42 1
    19    9   10 1
    20   10   11 1
    21   10   12 1
    22   12   13 1
    23   13   14 1
    24   14   19 ar
    25   14   15 ar
    26   15   16 ar
    27   15   31 1
    28   16   17 ar
    29   16   32 1
    30   17   18 ar
    31   17   33 1
    32   18   23 ar
    33   18   19 ar
    34   19   20 ar
    35   20   21 ar
    36   20   34 1
    37   21   22 ar
    38   21   35 1
    39   22   23 ar
    40   22   36 1
    41   23   37 1
    42   24   38 1
    43   24   39 1
    44   25   40 1
    45   25   41 1
@<TRIPOS>MOLECULE
CHEMBL147886
   53    56     0     0     0
SMALL
USER_CHARGES

@<TRIPOS>ATOM
      1 C1          0.6027    1.5059    0.0256 C.3       1 <0>        -0.1585
      2 C2          0.5978   -0.0011    0.0167 C.ar      1 <0>         0.0817
      3 C3          0.7711   -0.7002   -1.1492 C.ar      1 <0>        -0.1474
      4 C4          0.7631   -2.0894   -1.1308 C.ar      1 <0>         0.2232
      5 N1          0.5923   -2.7658   -0.0167 N.ar      1 <0>        -0.4987
      6 C5          0.4186   -2.1439    1.1496 C.ar      1 <0>         0.3994
      7 C6          0.4219   -0.7279    1.1996 C.ar      1 <0>        -0.2381
      8 C7          0.2403   -0.0941    2.4537 C.ar      1 <0>         0.5786
      9 N2          0.0801   -0.8575    3.5253 N.ar      1 <0>        -0.5799
     10 C8          0.0882   -2.1844    3.4357 C.ar      1 <0>         0.6985
     11 N3          0.2432   -2.8239    2.2916 N.ar      1 <0>        -0.5721
     12 N4         -0.0838   -2.9256    4.5891 N.pl3     1 <0>        -0.7793
     13 N5          0.2308    1.2796    2.5567 N.pl3     1 <0>        -0.8024
     14 C9          0.9696    0.0364   -2.4489 C.3       1 <0>         0.0879
     15 N6          2.3660    0.4809   -2.5515 N.3       1 <0>        -0.5276
     16 C10         2.5489    1.3843   -3.6986 C.3       1 <0>         0.0518
     17 C11         3.8943    2.0944   -3.5473 C.3       1 <0>        -0.0722
     18 C12         4.9818    1.0852   -3.2804 C.ar      1 <0>        -0.0642
     19 C13         6.3009    1.4723   -3.4668 C.ar      1 <0>        -0.1744
     20 C14         7.3318    0.5808   -3.2300 C.ar      1 <0>         0.1096
     21 C15         7.0407   -0.7113   -2.8019 C.ar      1 <0>         0.1022
     22 C16         5.7238   -1.0927   -2.6194 C.ar      1 <0>        -0.1709
     23 C17         4.6927   -0.1957   -2.8605 C.ar      1 <0>        -0.0845
     24 C18         3.2755   -0.6643   -2.6572 C.3       1 <0>         0.0988
     25 O1          8.0468   -1.5950   -2.5646 O.3       1 <0>        -0.3036
     26 C19         7.6719   -2.9029   -2.1276 C.3       1 <0>         0.0267
     27 O2          8.6232    0.9648   -3.4151 O.3       1 <0>        -0.3044
     28 C20         8.8445    2.3059   -3.8560 C.3       1 <0>         0.0249
     29 H1          1.5940    1.8644    0.3030 H         1 <0>         0.1088
     30 H2          0.3472    1.8760   -0.9673 H         1 <0>         0.1037
     31 H3         -0.1295    1.8674    0.7476 H         1 <0>         0.0991
     32 H4          0.9004   -2.6280   -2.0567 H         1 <0>         0.1880
     33 H5         -0.2070   -2.4769    5.4402 H         1 <0>         0.4477
     34 H6         -0.0814   -3.8947    4.5477 H         1 <0>         0.4331
     35 H7         -0.4109    1.7180    3.1371 H         1 <0>         0.4299
     36 H8          0.8658    1.8084    2.0488 H         1 <0>         0.4368
     37 H9          0.7374   -0.6273   -3.2818 H         1 <0>         0.0636
     38 H10         0.3092    0.9030   -2.4798 H         1 <0>         0.1048
     39 H11         2.5410    0.8078   -4.6237 H         1 <0>         0.0491
     40 H12         1.7458    2.1212   -3.7161 H         1 <0>         0.0870
     41 H13         4.1220    2.6376   -4.4645 H         1 <0>         0.0834
     42 H14         3.8410    2.7973   -2.7159 H         1 <0>         0.0853
     43 H15         6.5242    2.4754   -3.7990 H         1 <0>         0.1375
     44 H16         5.4965   -2.0950   -2.2874 H         1 <0>         0.1324
     45 H17         3.2193   -1.2539   -1.7421 H         1 <0>         0.0781
     46 H18         2.9768   -1.2840   -3.5026 H         1 <0>         0.0538
     47 H19         7.0423   -3.3720   -2.8837 H         1 <0>         0.0551
     48 H20         8.5672   -3.5057   -1.9754 H         1 <0>         0.1038
     49 H21         7.1202   -2.8286   -1.1905 H         1 <0>         0.0519
     50 H22         8.3532    2.4581   -4.8170 H         1 <0>         0.0567
     51 H23         8.4342    3.0014   -3.1239 H         1 <0>         0.0559
     52 H24         9.9150    2.4811   -3.9635 H         1 <0>         0.1044
     53 H25         0.2412   -3.7938    2.2786 H         1 <0>         0.4448
@<TRIPOS>BOND
     1    1    2 1
     2    1   29 1
     3    1   30 1
     4    1   31 1
     5    2    7 ar
     6    2    3 ar
     7    3    4 ar
     8    3   14 1
     9    4    5 ar
    10    4   32 1
    11    5    6 ar
    12    6   11 ar
    13    6    7 ar
    14    7    8 ar
    15    8    9 ar
    16    8   13 1
    17    9   10 ar
    18   10   11 ar
    19   10   12 1
    20   11   53 1
    21   12   33 1
    22   12   34 1
    23   13   35 1
    24   13   36 1
    25   14   15 1
    26   14   37 1
    27   14   38 1
    28   15   24 1
    29   15   16 1
    30   16   17 1
    31   16   39 1
    32   16   40 1
    33   17   18 1
    34   17   41 1
    35   17   42 1
    36   18   23 ar
    37   18   19 ar
    38   19   20 ar
    39   19   43 1
    40   20   21 ar
    41   20   27 1
    42   21   22 ar
    43   21   25 1
    44   22   23 ar
    45   22   44 1
    46   23   24 1
    47   24   45 1
    48   24   46 1
    49   25   26 1
    50   26   47 1
    51   26   48 1
    52   26   49 1
    53   27   28 1
    54   28   50 1
    55   28   51 1
    56   28   52 1
@<TRIPOS>MOLECULE
CHEMBL147886__1
   52    55     0     0     0
SMALL
USER_CHARGES

@<TRIPOS>ATOM
      1 C1          0.6027    1.5059    0.0256 C.3       1 <0>        -0.1444
      2 C2          0.5978   -0.0011    0.0167 C.ar      1 <0>         0.0638
      3 C3          0.7711   -0.7002   -1.1492 C.ar      1 <0>        -0.1922
      4 C4          0.7631   -2.0894   -1.1308 C.ar      1 <0>         0.1965
      5 N1          0.5923   -2.7658   -0.0167 N.ar      1 <0>        -0.4905
      6 C5          0.4186   -2.1439    1.1496 C.ar      1 <0>         0.4109
      7 C6          0.4219   -0.7279    1.1996 C.ar      1 <0>        -0.2793
      8 C7          0.2403   -0.0941    2.4537 C.ar      1 <0>         0.5236
      9 N2          0.0801   -0.8575    3.5253 N.ar      1 <0>        -0.6185
     10 C8          0.0882   -2.1844    3.4357 C.ar      1 <0>         0.6226
     11 N3          0.2432   -2.8239    2.2916 N.ar      1 <0>        -0.5922
     12 N4         -0.0838   -2.9256    4.5891 N.pl3     1 <0>        -0.8124
     13 N5          0.2308    1.2796    2.5567 N.pl3     1 <0>        -0.8453
     14 C9          0.9696    0.0364   -2.4489 C.3       1 <0>         0.1032
     15 N6          2.3660    0.4809   -2.5515 N.3       1 <0>        -0.5260
     16 C10         2.5489    1.3843   -3.6986 C.3       1 <0>         0.0513
     17 C11         3.8943    2.0944   -3.5473 C.3       1 <0>        -0.0709
     18 C12         4.9818    1.0852   -3.2804 C.ar      1 <0>        -0.0655
     19 C13         6.3009    1.4723   -3.4668 C.ar      1 <0>        -0.1744
     20 C14         7.3318    0.5808   -3.2300 C.ar      1 <0>         0.1021
     21 C15         7.0407   -0.7113   -2.8019 C.ar      1 <0>         0.1005
     22 C16         5.7238   -1.0927   -2.6194 C.ar      1 <0>        -0.1693
     23 C17         4.6927   -0.1957   -2.8605 C.ar      1 <0>        -0.0739
     24 C18         3.2755   -0.6643   -2.6572 C.3       1 <0>         0.0981
     25 O1          8.0468   -1.5950   -2.5646 O.3       1 <0>        -0.3064
     26 C19         7.6719   -2.9029   -2.1276 C.3       1 <0>         0.0258
     27 O2          8.6232    0.9648   -3.4151 O.3       1 <0>        -0.3066
     28 C20         8.8445    2.3059   -3.8560 C.3       1 <0>         0.0263
     29 H1          1.5940    1.8644    0.3030 H         1 <0>         0.0888
     30 H2          0.3472    1.8760   -0.9673 H         1 <0>         0.0826
     31 H3         -0.1295    1.8674    0.7476 H         1 <0>         0.0923
     32 H4          0.9004   -2.6280   -2.0567 H         1 <0>         0.1609
     33 H5         -0.2070   -2.4769    5.4402 H         1 <0>         0.4156
     34 H6         -0.0814   -3.8947    4.5477 H         1 <0>         0.4181
     35 H7         -0.4109    1.7180    3.1371 H         1 <0>         0.4096
     36 H8          0.8658    1.8084    2.0488 H         1 <0>         0.4190
     37 H9          0.7374   -0.6273   -3.2818 H         1 <0>         0.0498
     38 H10         0.3092    0.9030   -2.4798 H         1 <0>         0.0917
     39 H11         2.5410    0.8078   -4.6237 H         1 <0>         0.0429
     40 H12         1.7458    2.1212   -3.7161 H         1 <0>         0.0828
     41 H13         4.1220    2.6376   -4.4645 H         1 <0>         0.0783
     42 H14         3.8410    2.7973   -2.7159 H         1 <0>         0.0839
     43 H15         6.5242    2.4754   -3.7990 H         1 <0>         0.1348
     44 H16         5.4965   -2.0950   -2.2874 H         1 <0>         0.1343
     45 H17         3.2193   -1.2539   -1.7421 H         1 <0>         0.0858
     46 H18         2.9768   -1.2840   -3.5026 H         1 <0>         0.0504
     47 H19         7.0423   -3.3720   -2.8837 H         1 <0>         0.0550
     48 H20         8.5672   -3.5057   -1.9754 H         1 <0>         0.1015
     49 H21         7.1202   -2.8286   -1.1905 H         1 <0>         0.0547
     50 H22         9.9150    2.4811   -3.9635 H         1 <0>         0.1009
     51 H23         8.3532    2.4581   -4.8170 H         1 <0>         0.0547
     52 H24         8.4342    3.0014   -3.1239 H         1 <0>         0.0547
@<TRIPOS>BOND
     1    1    2 1
     2    1   29 1
     3    1   30 1
     4    1   31 1
     5    2    7 ar
     6    2    3 ar
     7    3    4 ar
     8    3   14 1
     9    4    5 ar
    10    4   32 1
    11    5    6 ar
    12    6   11 ar
    13    6    7 ar
    14    7    8 ar
    15    8    9 ar
    16    8   13 1
    17    9   10 ar
    18   10   11 ar
    19   10   12 1
    20   12   33 1
    21   12   34 1
    22   13   35 1
    23   13   36 1
    24   14   15 1
    25   14   37 1
    26   14   38 1
    27   15   24 1
    28   15   16 1
    29   16   17 1
    30   16   39 1
    31   16   40 1
    32   17   18 1
    33   17   41 1
    34   17   42 1
    35   18   23 ar
    36   18   19 ar
    37   19   20 ar
    38   19   43 1
    39   20   21 ar
    40   20   27 1
    41   21   22 ar
    42   21   25 1
    43   22   23 ar
    44   22   44 1
    45   23   24 1
    46   24   45 1
    47   24   46 1
    48   25   26 1
    49   26   47 1
    50   26   48 1
    51   26   49 1
    52   27   28 1
    53   28   50 1
    54   28   51 1
    55   28   52 1
@<TRIPOS>MOLECULE
CHEMBL102418
   58    60     0     0     0
SMALL
USER_CHARGES

@<TRIPOS>ATOM
      1 C1         -0.1710   -1.6914    0.8828 C.3       1 <0>        -0.1550
      2 C2         -0.0179   -0.3862    0.0993 C.3       1 <0>        -0.1071
      3 C3          0.8044   -0.6368   -1.1385 C.ar      1 <0>         0.2624
      4 C4          2.1957   -0.5983   -1.0811 C.ar      1 <0>        -0.1970
      5 C5          2.9180   -0.8391   -2.2645 C.ar      1 <0>         0.5433
      6 N1          2.2496   -1.0922   -3.3837 N.ar      1 <0>        -0.5717
      7 C6          0.9252   -1.1185   -3.3903 C.ar      1 <0>         0.6688
      8 N2          0.2143   -0.9017   -2.2931 N.ar      1 <0>        -0.5688
      9 N3          0.2647   -1.3855   -4.5767 N.pl3     1 <0>        -0.7874
     10 N4          4.3016   -0.8121   -2.2621 N.pl3     1 <0>        -0.7721
     11 C7          2.8971   -0.3107    0.1934 C.ar      1 <0>        -0.0696
     12 C8          2.8209    0.9607    0.7609 C.ar      1 <0>        -0.0428
     13 C9          3.4739    1.2257    1.9458 C.ar      1 <0>        -0.1158
     14 C10         4.2082    0.2268    2.5745 C.ar      1 <0>         0.2695
     15 C11         4.2860   -1.0409    2.0106 C.ar      1 <0>        -0.0557
     16 C12         3.6290   -1.3126    0.8289 C.ar      1 <0>        -0.0391
     17 N5          5.0695   -2.1022    2.6821 N.pl3     1 <0>         0.0308
     18 O1          5.1375   -3.2053    2.1919 O.2       1 <0>        -0.1719
     19 O2          5.6415   -1.8659    3.7207 O.3       1 <0>        -0.1117
     20 N6          4.8693    0.4979    3.7748 N.pl3     1 <0>        -0.6733
     21 C13         4.1833    0.2889    5.0523 C.3       1 <0>         0.1125
     22 C14         6.2486    0.9912    3.7561 C.3       1 <0>         0.1858
     23 C15         6.2428    2.4975    3.7115 C.ar      1 <0>        -0.0852
     24 C16         6.2309    3.1503    2.4916 C.ar      1 <0>        -0.1179
     25 C17         6.2256    4.5291    2.4437 C.ar      1 <0>        -0.0596
     26 C18         6.2321    5.2655    3.6293 C.ar      1 <0>        -0.1297
     27 C19         6.2441    4.6007    4.8565 C.ar      1 <0>        -0.0832
     28 C20         6.2437    3.2216    4.8905 C.ar      1 <0>        -0.1078
     29 C21         6.2269    6.7433    3.5855 C.2       1 <0>         0.5537
     30 O3          6.2169    7.3196    2.5153 O.2       1 <0>        -0.5341
     31 N7          6.2333    7.4515    4.7321 N.am      1 <0>        -0.7297
     32 C22         6.2281    8.9159    4.6887 C.3       1 <0>         0.0847
     33 H1         -0.6048   -2.4544    0.2365 H         1 <0>         0.0659
     34 H2          0.8073   -2.0232    1.2306 H         1 <0>         0.0693
     35 H3         -0.8244   -1.5264    1.7394 H         1 <0>         0.0904
     36 H4         -1.0026   -0.0169   -0.1873 H         1 <0>         0.1085
     37 H5          0.4810    0.3556    0.7229 H         1 <0>         0.1206
     38 H6          0.7712   -1.5499   -5.3874 H         1 <0>         0.4467
     39 H7         -0.7048   -1.4082   -4.5975 H         1 <0>         0.4316
     40 H8          4.7817   -0.6261   -1.4400 H         1 <0>         0.4300
     41 H9          4.7914   -0.9792   -3.0825 H         1 <0>         0.4313
     42 H10         2.2511    1.7373    0.2724 H         1 <0>         0.1487
     43 H11         3.4151    2.2103    2.3857 H         1 <0>         0.1575
     44 H12         3.6855   -2.2994    0.3937 H         1 <0>         0.1564
     45 H13         4.3595   -0.7301    5.3968 H         1 <0>         0.0542
     46 H14         4.5670    0.9934    5.7903 H         1 <0>         0.0725
     47 H15         3.1131    0.4479    4.9203 H         1 <0>         0.0541
     48 H16         6.7664    0.6564    4.6550 H         1 <0>         0.0973
     49 H17         6.7612    0.6036    2.8758 H         1 <0>         0.0709
     50 H18         6.2262    2.5793    1.5749 H         1 <0>         0.1208
     51 H19         6.2167    5.0374    1.4908 H         1 <0>         0.1356
     52 H20         6.2493    5.1648    5.7775 H         1 <0>         0.1282
     53 H21         6.2485    2.7059    5.8394 H         1 <0>         0.1316
     54 H22         6.2413    6.9917    5.5862 H         1 <0>         0.4020
     55 H23         7.1130    9.2667    4.1576 H         1 <0>         0.0639
     56 H24         5.3331    9.2609    4.1710 H         1 <0>         0.0630
     57 H25         6.2345    9.3096    5.7051 H         1 <0>         0.0802
     58 H26        -0.7541   -0.9337   -2.3378 H         1 <0>         0.4436
@<TRIPOS>BOND
     1    1    2 1
     2    1   33 1
     3    1   34 1
     4    1   35 1
     5    2    3 1
     6    2   36 1
     7    2   37 1
     8    3    8 ar
     9    3    4 ar
    10    4    5 ar
    11    4   11 1
    12    5    6 ar
    13    5   10 1
    14    6    7 ar
    15    7    8 ar
    16    7    9 1
    17    8   58 1
    18    9   38 1
    19    9   39 1
    20   10   40 1
    21   10   41 1
    22   11   16 ar
    23   11   12 ar
    24   12   13 ar
    25   12   42 1
    26   13   14 ar
    27   13   43 1
    28   14   15 ar
    29   14   20 1
    30   15   16 ar
    31   15   17 1
    32   16   44 1
    33   17   18 2
    34   17   19 1
    35   20   21 1
    36   20   22 1
    37   21   45 1
    38   21   46 1
    39   21   47 1
    40   22   23 1
    41   22   48 1
    42   22   49 1
    43   23   28 ar
    44   23   24 ar
    45   24   25 ar
    46   24   50 1
    47   25   26 ar
    48   25   51 1
    49   26   27 ar
    50   26   29 1
    51   27   28 ar
    52   27   52 1
    53   28   53 1
    54   29   30 2
    55   29   31 am
    56   31   32 1
    57   31   54 1
    58   32   55 1
    59   32   56 1
    60   32   57 1
@<TRIPOS>MOLECULE
CHEMBL102418__1
   57    59     0     0     0
SMALL
USER_CHARGES

@<TRIPOS>ATOM
      1 C1         -0.0187    1.5258    0.0104 C.3       1 <0>        -0.1426
      2 C2          0.0021   -0.0041    0.0020 C.3       1 <0>        -0.0816
      3 C3         -1.4117   -0.5257    0.0127 C.ar      1 <0>         0.2744
      4 C4         -2.0643   -0.7710    1.2188 C.ar      1 <0>        -0.2937
      5 C5         -3.3838   -1.2577    1.1751 C.ar      1 <0>         0.5025
      6 N1         -3.9529   -1.4632   -0.0070 N.ar      1 <0>        -0.6282
      7 C6         -3.2929   -1.2155   -1.1285 C.ar      1 <0>         0.6152
      8 N2         -2.0516   -0.7516   -1.1235 N.ar      1 <0>        -0.6007
      9 N3         -3.9200   -1.4428   -2.3410 N.pl3     1 <0>        -0.8162
     10 N4         -4.0767   -1.5182    2.3444 N.pl3     1 <0>        -0.8298
     11 C7         -1.3860   -0.5261    2.5145 C.ar      1 <0>        -0.0091
     12 C8         -0.2670   -1.2783    2.8701 C.ar      1 <0>        -0.0542
     13 C9          0.3620   -1.0488    4.0752 C.ar      1 <0>        -0.1184
     14 C10        -0.1189   -0.0689    4.9360 C.ar      1 <0>         0.2386
     15 C11        -1.2342    0.6817    4.5840 C.ar      1 <0>        -0.0552
     16 C12        -1.8627    0.4603    3.3766 C.ar      1 <0>        -0.0543
     17 N5         -1.7444    1.7238    5.5032 N.pl3     1 <0>         0.0372
     18 O1         -2.7147    2.3771    5.1974 O.2       1 <0>        -0.1813
     19 O2         -1.1908    1.9217    6.5596 O.3       1 <0>        -0.1289
     20 N6          0.5198    0.1614    6.1567 N.pl3     1 <0>        -0.6684
     21 C13         1.6073    1.1394    6.2415 C.3       1 <0>         0.1155
     22 C14         0.1020   -0.5749    7.3523 C.3       1 <0>         0.1867
     23 C15         0.9003   -1.8484    7.4624 C.ar      1 <0>        -0.0792
     24 C16         0.4368   -3.0058    6.8624 C.ar      1 <0>        -0.1147
     25 C17         1.1627   -4.1749    6.9594 C.ar      1 <0>        -0.0582
     26 C18         2.3671   -4.1885    7.6647 C.ar      1 <0>        -0.1354
     27 C19         2.8289   -3.0175    8.2676 C.ar      1 <0>        -0.0855
     28 C20         2.0961   -1.8537    8.1583 C.ar      1 <0>        -0.1106
     29 C21         3.1499   -5.4380    7.7731 C.2       1 <0>         0.5558
     30 O3          2.7451   -6.4564    7.2473 O.2       1 <0>        -0.5345
     31 N7          4.3125   -5.4478    8.4549 N.am      1 <0>        -0.7319
     32 C22         5.0882   -6.6859    8.5623 C.3       1 <0>         0.0860
     33 H1          1.0039    1.9031    0.0027 H         1 <0>         0.0668
     34 H2         -0.5459    1.8868   -0.8726 H         1 <0>         0.0622
     35 H3         -0.5289    1.8773    0.9072 H         1 <0>         0.0540
     36 H4          0.5123   -0.3556   -0.8948 H         1 <0>         0.0908
     37 H5          0.5293   -0.3651    0.8851 H         1 <0>         0.0844
     38 H6         -4.8298   -1.7788   -2.3610 H         1 <0>         0.4153
     39 H7         -3.4498   -1.2662   -3.1708 H         1 <0>         0.4170
     40 H8         -3.6531   -1.3654    3.2035 H         1 <0>         0.4102
     41 H9         -4.9861   -1.8535    2.3048 H         1 <0>         0.4105
     42 H10         0.1066   -2.0402    2.2020 H         1 <0>         0.1432
     43 H11         1.2287   -1.6312    4.3510 H         1 <0>         0.1474
     44 H12        -2.7263    1.0474    3.1012 H         1 <0>         0.1503
     45 H13         1.1960    2.1204    6.4794 H         1 <0>         0.0498
     46 H14         2.3059    0.8391    7.0224 H         1 <0>         0.0659
     47 H15         2.1291    1.1862    5.2856 H         1 <0>         0.0530
     48 H16         0.2743    0.0394    8.2361 H         1 <0>         0.0917
     49 H17        -0.9584   -0.8160    7.2786 H         1 <0>         0.0698
     50 H18        -0.4954   -2.9940    6.3172 H         1 <0>         0.1239
     51 H19         0.7997   -5.0778    6.4908 H         1 <0>         0.1351
     52 H20         3.7600   -3.0214    8.8148 H         1 <0>         0.1254
     53 H21         2.4545   -0.9459    8.6206 H         1 <0>         0.1297
     54 H22         4.6356   -4.6351    8.8744 H         1 <0>         0.4016
     55 H23         4.4871   -7.4497    9.0557 H         1 <0>         0.0623
     56 H24         5.3647   -7.0291    7.5653 H         1 <0>         0.0621
     57 H25         5.9900   -6.5002    9.1457 H         1 <0>         0.0781
@<TRIPOS>BOND
     1    1    2 1
     2    1   33 1
     3    1   34 1
     4    1   35 1
     5    2    3 1
     6    2   36 1
     7    2   37 1
     8    3    8 ar
     9    3    4 ar
    10    4    5 ar
    11    4   11 1
    12    5    6 ar
    13    5   10 1
    14    6    7 ar
    15    7    8 ar
    16    7    9 1
    17    9   38 1
    18    9   39 1
    19   10   40 1
    20   10   41 1
    21   11   16 ar
    22   11   12 ar
    23   12   13 ar
    24   12   42 1
    25   13   14 ar
    26   13   43 1
    27   14   15 ar
    28   14   20 1
    29   15   16 ar
    30   15   17 1
    31   16   44 1
    32   17   18 2
    33   17   19 1
    34   20   21 1
    35   20   22 1
    36   21   45 1
    37   21   46 1
    38   21   47 1
    39   22   23 1
    40   22   48 1
    41   22   49 1
    42   23   28 ar
    43   23   24 ar
    44   24   25 ar
    45   24   50 1
    46   25   26 ar
    47   25   51 1
    48   26   27 ar
    49   26   29 1
    50   27   28 ar
    51   27   52 1
    52   28   53 1
    53   29   30 2
    54   29   31 am
    55   31   32 1
    56   31   54 1
    57   32   55 1
    58   32   56 1
    59   32   57 1
@<TRIPOS>MOLECULE
CHEMBL493718
   48    51     0     0     0
SMALL
USER_CHARGES

@<TRIPOS>ATOM
      1 C1          0.0963    1.5167    0.0796 C.3       1 <0>        -0.1771
      2 C2          0.1103   -0.0132    0.0660 C.3       1 <0>         0.1086
      3 N1          0.6830   -0.4850   -1.1972 N.pl3     1 <0>        -0.6072
      4 C3          2.1257   -0.7149   -1.3068 C.3       1 <0>         0.1575
      5 C4          2.4517   -2.1028   -0.8183 C.ar      1 <0>        -0.1090
      6 C5          1.4517   -2.9564   -0.4654 C.ar      1 <0>        -0.1005
      7 C6          1.7337   -4.2432   -0.0116 C.ar      1 <0>        -0.1214
      8 C7          3.0175   -4.6840    0.0925 C.ar      1 <0>        -0.0951
      9 C8          4.0762   -3.8314   -0.2626 C.ar      1 <0>        -0.0509
     10 C9          3.7890   -2.5244   -0.7302 C.ar      1 <0>        -0.0411
     11 C10         4.8480   -1.6736   -1.0910 C.ar      1 <0>        -0.1198
     12 C11         6.1310   -2.1165   -0.9925 C.ar      1 <0>        -0.1035
     13 C12         6.4131   -3.4039   -0.5388 C.ar      1 <0>        -0.1141
     14 C13         5.4143   -4.2508   -0.1680 C.ar      1 <0>        -0.1012
     15 C14        -0.1477   -0.7159   -2.2986 C.ar      1 <0>         0.2252
     16 C15         0.3835   -1.2855   -3.4595 C.ar      1 <0>        -0.0907
     17 C16        -0.4024   -1.5213   -4.5466 C.ar      1 <0>        -0.0927
     18 C17        -1.7641   -1.1912   -4.5078 C.ar      1 <0>         0.1366
     19 C18        -2.3088   -0.6145   -3.3350 C.ar      1 <0>        -0.1325
     20 C19        -1.4854   -0.3848   -2.2275 C.ar      1 <0>        -0.1429
     21 C20        -3.6887   -0.2911   -3.3232 C.ar      1 <0>         0.5560
     22 N2         -4.4029   -0.5438   -4.4099 N.ar      1 <0>        -0.5947
     23 C21        -3.8512   -1.0871   -5.4914 C.ar      1 <0>         0.6831
     24 N3         -2.5736   -1.4073   -5.5566 N.ar      1 <0>        -0.5733
     25 N4         -4.6517   -1.3263   -6.5949 N.pl3     1 <0>        -0.7949
     26 N5         -4.2732    0.2721   -2.2082 N.pl3     1 <0>        -0.7706
     27 H1          1.1155    1.8903   -0.0193 H         1 <0>         0.0644
     28 H2         -0.5069    1.8820   -0.7516 H         1 <0>         0.0578
     29 H3         -0.3298    1.8678    1.0195 H         1 <0>         0.0742
     30 H4          0.7135   -0.3784    0.8972 H         1 <0>         0.0898
     31 H5         -0.9088   -0.3868    0.1649 H         1 <0>         0.0786
     32 H6          2.4314   -0.6152   -2.3483 H         1 <0>         0.0952
     33 H7          2.6575    0.0180   -0.7002 H         1 <0>         0.0994
     34 H8          0.4244   -2.6312   -0.5380 H         1 <0>         0.1193
     35 H9          0.9217   -4.9006    0.2621 H         1 <0>         0.1230
     36 H10         3.2210   -5.6838    0.4466 H         1 <0>         0.1294
     37 H11         4.6446   -0.6737   -1.4449 H         1 <0>         0.1255
     38 H12         6.9429   -1.4607   -1.2704 H         1 <0>         0.1266
     39 H13         7.4402   -3.7306   -0.4705 H         1 <0>         0.1274
     40 H14         5.6480   -5.2453    0.1824 H         1 <0>         0.1303
     41 H15         1.4320   -1.5418   -3.4949 H         1 <0>         0.1530
     42 H16         0.0227   -1.9613   -5.4366 H         1 <0>         0.1562
     43 H17        -1.8921    0.0510   -1.3269 H         1 <0>         0.1467
     44 H18        -5.5942   -1.0985   -6.5688 H         1 <0>         0.4428
     45 H19        -4.2702   -1.7218   -7.3942 H         1 <0>         0.4290
     46 H20        -3.7388    0.4517   -1.4189 H         1 <0>         0.4296
     47 H21        -5.2187    0.4886   -2.2134 H         1 <0>         0.4307
     48 H22        -2.2164   -1.8017   -6.3677 H         1 <0>         0.4375
@<TRIPOS>BOND
     1    1    2 1
     2    1   27 1
     3    1   28 1
     4    1   29 1
     5    2    3 1
     6    2   30 1
     7    2   31 1
     8    3    4 1
     9    3   15 1
    10    4    5 1
    11    4   32 1
    12    4   33 1
    13    5   10 ar
    14    5    6 ar
    15    6    7 ar
    16    6   34 1
    17    7    8 ar
    18    7   35 1
    19    8    9 ar
    20    8   36 1
    21    9   14 ar
    22    9   10 ar
    23   10   11 ar
    24   11   12 ar
    25   11   37 1
    26   12   13 ar
    27   12   38 1
    28   13   14 ar
    29   13   39 1
    30   14   40 1
    31   15   20 ar
    32   15   16 ar
    33   16   17 ar
    34   16   41 1
    35   17   18 ar
    36   17   42 1
    37   18   24 ar
    38   18   19 ar
    39   19   20 ar
    40   19   21 ar
    41   20   43 1
    42   21   22 ar
    43   21   26 1
    44   22   23 ar
    45   23   24 ar
    46   23   25 1
    47   24   48 1
    48   25   44 1
    49   25   45 1
    50   26   46 1
    51   26   47 1
@<TRIPOS>MOLECULE
CHEMBL522678
   48    51     0     0     0
SMALL
USER_CHARGES

@<TRIPOS>ATOM
      1 C1         -0.0187    1.5258    0.0104 C.3       1 <0>        -0.1768
      2 C2          0.0021   -0.0041    0.0020 C.3       1 <0>         0.1091
      3 N1          0.6878   -0.4765   -1.2033 N.pl3     1 <0>        -0.6030
      4 C3          2.1353   -0.7012   -1.1821 C.3       1 <0>         0.1531
      5 C4          2.4170   -2.1231   -0.7698 C.ar      1 <0>        -0.1120
      6 C5          2.5760   -2.4274    0.5810 C.ar      1 <0>        -0.1081
      7 C6          2.8316   -3.7010    0.9870 C.ar      1 <0>        -0.0962
      8 C7          2.9368   -4.7272    0.0325 C.ar      1 <0>        -0.0479
      9 C8          3.1993   -6.0542    0.4135 C.ar      1 <0>        -0.1058
     10 C9          3.2941   -7.0219   -0.5387 C.ar      1 <0>        -0.1106
     11 C10         3.1347   -6.7176   -1.8895 C.ar      1 <0>        -0.1093
     12 C11         2.8796   -5.4439   -2.2954 C.ar      1 <0>        -0.1110
     13 C12         2.7747   -4.4178   -1.3409 C.ar      1 <0>        -0.0519
     14 C13         2.5067   -3.0917   -1.7215 C.ar      1 <0>        -0.0922
     15 C14        -0.0395   -0.7131   -2.3744 C.ar      1 <0>         0.2303
     16 C15         0.6201   -1.1693   -3.5193 C.ar      1 <0>        -0.0996
     17 C16        -0.0633   -1.4079   -4.6731 C.ar      1 <0>        -0.0916
     18 C17        -1.4479   -1.1954   -4.7202 C.ar      1 <0>         0.1329
     19 C18        -2.1226   -0.7338   -3.5642 C.ar      1 <0>        -0.1302
     20 C19        -1.4028   -0.4994   -2.3876 C.ar      1 <0>        -0.1447
     21 C20        -3.5228   -0.5281   -3.6399 C.ar      1 <0>         0.5558
     22 N2         -4.1336   -0.7774   -4.7887 N.ar      1 <0>        -0.5947
     23 C21        -3.4613   -1.2103   -5.8517 C.ar      1 <0>         0.6827
     24 N3         -2.1592   -1.4185   -5.8366 N.ar      1 <0>        -0.5729
     25 N4         -4.1578   -1.4525   -7.0230 N.pl3     1 <0>        -0.7952
     26 N5         -4.2317   -0.0800   -2.5451 N.pl3     1 <0>        -0.7705
     27 H1          1.0039    1.9031    0.0027 H         1 <0>         0.0645
     28 H2         -0.5459    1.8868   -0.8726 H         1 <0>         0.0578
     29 H3         -0.5289    1.8773    0.9072 H         1 <0>         0.0740
     30 H4          0.5293   -0.3651    0.8851 H         1 <0>         0.0882
     31 H5         -1.0205   -0.3814    0.0098 H         1 <0>         0.0772
     32 H6          2.5453   -0.5232   -2.1762 H         1 <0>         0.0897
     33 H7          2.5986   -0.0180   -0.4703 H         1 <0>         0.0982
     34 H8          2.4956   -1.6407    1.3166 H         1 <0>         0.1230
     35 H9          2.9532   -3.9219    2.0372 H         1 <0>         0.1307
     36 H10         3.3254   -6.3048    1.4564 H         1 <0>         0.1304
     37 H11         3.4962   -8.0409   -0.2433 H         1 <0>         0.1275
     38 H12         3.2152   -7.5043   -2.6251 H         1 <0>         0.1263
     39 H13         2.7588   -5.2228   -3.3456 H         1 <0>         0.1258
     40 H14         2.3765   -2.8419   -2.7642 H         1 <0>         0.1226
     41 H15         1.6870   -1.3347   -3.4886 H         1 <0>         0.1528
     42 H16         0.4606   -1.7595   -5.5496 H         1 <0>         0.1562
     43 H17        -1.9086   -0.1511   -1.4992 H         1 <0>         0.1463
     44 H18        -5.1161   -1.3061   -7.0565 H         1 <0>         0.4427
     45 H19        -3.6876   -1.7686   -7.8103 H         1 <0>         0.4289
     46 H20        -3.7722    0.0985   -1.7097 H         1 <0>         0.4296
     47 H21        -5.1898    0.0567   -2.6105 H         1 <0>         0.4307
     48 H22        -1.7125   -1.7348   -6.6374 H         1 <0>         0.4372
@<TRIPOS>BOND
     1    1    2 1
     2    1   27 1
     3    1   28 1
     4    1   29 1
     5    2    3 1
     6    2   30 1
     7    2   31 1
     8    3    4 1
     9    3   15 1
    10    4    5 1
    11    4   32 1
    12    4   33 1
    13    5   14 ar
    14    5    6 ar
    15    6    7 ar
    16    6   34 1
    17    7    8 ar
    18    7   35 1
    19    8   13 ar
    20    8    9 ar
    21    9   10 ar
    22    9   36 1
    23   10   11 ar
    24   10   37 1
    25   11   12 ar
    26   11   38 1
    27   12   13 ar
    28   12   39 1
    29   13   14 ar
    30   14   40 1
    31   15   20 ar
    32   15   16 ar
    33   16   17 ar
    34   16   41 1
    35   17   18 ar
    36   17   42 1
    37   18   24 ar
    38   18   19 ar
    39   19   20 ar
    40   19   21 ar
    41   20   43 1
    42   21   22 ar
    43   21   26 1
    44   22   23 ar
    45   23   24 ar
    46   23   25 1
    47   24   48 1
    48   25   44 1
    49   25   45 1
    50   26   46 1
    51   26   47 1
@<TRIPOS>MOLECULE
CHEMBL284839
   53    55     0     0     0
SMALL
USER_CHARGES

@<TRIPOS>ATOM
      1 C1         -0.0173    1.4248    0.0099 C.3       1 <0>         0.0268
      2 O1          0.0021   -0.0041    0.0020 O.3       1 <0>        -0.3131
      3 C2          0.6058   -0.6071   -1.0557 C.ar      1 <0>         0.1300
      4 C3          1.1731    0.1608   -2.0626 C.ar      1 <0>        -0.2014
      5 C4          1.7865   -0.4545   -3.1363 C.ar      1 <0>        -0.0783
      6 C5          1.8356   -1.8347   -3.2084 C.ar      1 <0>        -0.1092
      7 C6          1.2707   -2.6020   -2.2067 C.ar      1 <0>        -0.0765
      8 C7          0.6609   -1.9913   -1.1277 C.ar      1 <0>        -0.1066
      9 C8          0.0508   -2.8283   -0.0330 C.3       1 <0>        -0.0065
     10 C9         -1.4193   -3.0171   -0.3053 C.ar      1 <0>        -0.2994
     11 C10        -2.3567   -2.1780    0.2648 C.ar      1 <0>         0.2269
     12 N1         -3.6416   -2.3701    0.0053 N.ar      1 <0>        -0.6085
     13 C11        -4.0361   -3.3531   -0.7908 C.ar      1 <0>         0.5978
     14 N2         -3.1693   -4.1794   -1.3564 N.ar      1 <0>        -0.6288
     15 C12        -1.8644   -4.0409   -1.1442 C.ar      1 <0>         0.4858
     16 N3         -0.9597   -4.9031   -1.7418 N.pl3     1 <0>        -0.8347
     17 N4         -5.3876   -3.5208   -1.0370 N.pl3     1 <0>        -0.8245
     18 C13         2.5055   -2.5033   -4.3810 C.3       1 <0>        -0.0727
     19 C14         3.9865   -2.7223   -4.0655 C.3       1 <0>        -0.1129
     20 C15         4.6666   -3.4012   -5.2560 C.3       1 <0>         0.0608
     21 O2          6.0499   -3.6057   -4.9614 O.3       1 <0>        -0.3180
     22 C16         6.8037   -4.2026   -5.9219 C.ar      1 <0>         0.1047
     23 C17         6.2229   -4.5783   -7.1261 C.ar      1 <0>        -0.2162
     24 C18         6.9840   -5.1864   -8.1072 C.ar      1 <0>        -0.1041
     25 C19         8.3266   -5.4245   -7.8968 C.ar      1 <0>        -0.1199
     26 C20         8.9205   -5.0499   -6.6890 C.ar      1 <0>        -0.0966
     27 C21         8.1511   -4.4306   -5.7014 C.ar      1 <0>        -0.1138
     28 C22        10.3560   -5.3027   -6.4597 C.2       1 <0>         0.5204
     29 O3         11.0284   -5.8410   -7.3278 O.co2     1 <0>        -0.6841
     30 O4         10.8734   -4.9738   -5.4016 O.co2     1 <0>        -0.6832
     31 H1          1.0053    1.8021    0.0021 H         1 <0>         0.0552
     32 H2         -0.5445    1.7859   -0.8732 H         1 <0>         0.0536
     33 H3         -0.5275    1.7763    0.9067 H         1 <0>         0.1001
     34 H4          1.1347    1.2387   -2.0069 H         1 <0>         0.1275
     35 H5          2.2279    0.1427   -3.9204 H         1 <0>         0.1247
     36 H6          1.3100   -3.6796   -2.2654 H         1 <0>         0.1220
     37 H7          0.5425   -3.8006   -0.0023 H         1 <0>         0.0724
     38 H8          0.1812   -2.3247    0.9248 H         1 <0>         0.0883
     39 H9         -2.0456   -1.3740    0.9154 H         1 <0>         0.1652
     40 H10        -0.0093   -4.7981   -1.5788 H         1 <0>         0.4100
     41 H11        -1.2767   -5.6118   -2.3234 H         1 <0>         0.4058
     42 H12        -6.0328   -2.9226   -0.6287 H         1 <0>         0.4134
     43 H13        -5.6896   -4.2365   -1.6179 H         1 <0>         0.4115
     44 H14         2.0287   -3.4647   -4.5721 H         1 <0>         0.0736
     45 H15         2.4117   -1.8696   -5.2629 H         1 <0>         0.0742
     46 H16         4.4633   -1.7609   -3.8744 H         1 <0>         0.0748
     47 H17         4.0803   -3.3560   -3.1836 H         1 <0>         0.0750
     48 H18         4.1899   -4.3626   -5.4471 H         1 <0>         0.0574
     49 H19         4.5728   -2.7675   -6.1379 H         1 <0>         0.0573
     50 H20         5.1723   -4.3950   -7.2968 H         1 <0>         0.1166
     51 H21         6.5260   -5.4764   -9.0413 H         1 <0>         0.1161
     52 H22         8.9180   -5.9003   -8.6651 H         1 <0>         0.1276
     53 H23         8.6049   -4.1349   -4.7671 H         1 <0>         0.1336
@<TRIPOS>BOND
     1    1    2 1
     2    1   31 1
     3    1   32 1
     4    1   33 1
     5    2    3 1
     6    3    8 ar
     7    3    4 ar
     8    4    5 ar
     9    4   34 1
    10    5    6 ar
    11    5   35 1
    12    6    7 ar
    13    6   18 1
    14    7    8 ar
    15    7   36 1
    16    8    9 1
    17    9   10 1
    18    9   37 1
    19    9   38 1
    20   10   15 ar
    21   10   11 ar
    22   11   12 ar
    23   11   39 1
    24   12   13 ar
    25   13   14 ar
    26   13   17 1
    27   14   15 ar
    28   15   16 1
    29   16   40 1
    30   16   41 1
    31   17   42 1
    32   17   43 1
    33   18   19 1
    34   18   44 1
    35   18   45 1
    36   19   20 1
    37   19   46 1
    38   19   47 1
    39   20   21 1
    40   20   48 1
    41   20   49 1
    42   21   22 1
    43   22   27 ar
    44   22   23 ar
    45   23   24 ar
    46   23   50 1
    47   24   25 ar
    48   24   51 1
    49   25   26 ar
    50   25   52 1
    51   26   27 ar
    52   26   28 1
    53   27   53 1
    54   28   29 2
    55   28   30 1
@<TRIPOS>MOLECULE
CHEMBL284839__1
   54    56     0     0     0
SMALL
USER_CHARGES

@<TRIPOS>ATOM
      1 C1         -0.0173    1.4248    0.0099 C.3       1 <0>         0.0230
      2 O1          0.0021   -0.0041    0.0020 O.3       1 <0>        -0.3246
      3 C2         -1.2003   -0.6375    0.0101 C.ar      1 <0>         0.1302
      4 C3         -2.3748    0.1012    0.0195 C.ar      1 <0>        -0.1948
      5 C4         -3.5956   -0.5449    0.0272 C.ar      1 <0>        -0.0648
      6 C5         -3.6478   -1.9268    0.0256 C.ar      1 <0>        -0.0988
      7 C6         -2.4790   -2.6650    0.0167 C.ar      1 <0>        -0.0776
      8 C7         -1.2554   -2.0235    0.0032 C.ar      1 <0>        -0.1313
      9 C8          0.0182   -2.8288   -0.0128 C.3       1 <0>        -0.0200
     10 C9          0.5220   -3.0002    1.3971 C.ar      1 <0>        -0.2151
     11 C10         1.4629   -2.1353    1.9210 C.ar      1 <0>         0.2089
     12 N1          1.8852   -2.3126    3.1642 N.ar      1 <0>        -0.5703
     13 C11         1.4180   -3.3052    3.9071 C.ar      1 <0>         0.6592
     14 N2          0.5159   -4.1561    3.4422 N.ar      1 <0>        -0.5741
     15 C12         0.0437   -4.0334    2.2056 C.ar      1 <0>         0.5346
     16 N3         -0.9042   -4.9214    1.7239 N.pl3     1 <0>        -0.7761
     17 N4          1.8847   -3.4570    5.2012 N.pl3     1 <0>        -0.7954
     18 C13        -4.9811   -2.6292    0.0340 C.3       1 <0>        -0.0777
     19 C14        -5.4425   -2.8648   -1.4056 C.3       1 <0>        -0.1139
     20 C15        -6.7962   -3.5779   -1.3970 C.3       1 <0>         0.0605
     21 O2         -7.2272   -3.7979   -2.7416 O.3       1 <0>        -0.3184
     22 C16        -8.4205   -4.4257   -2.9121 C.ar      1 <0>         0.1011
     23 C17        -9.1634   -4.8162   -1.8058 C.ar      1 <0>        -0.2165
     24 C18       -10.3780   -5.4556   -1.9723 C.ar      1 <0>        -0.1039
     25 C19       -10.8608   -5.7103   -3.2394 C.ar      1 <0>        -0.1170
     26 C20       -10.1212   -5.3210   -4.3589 C.ar      1 <0>        -0.0943
     27 C21        -8.8972   -4.6702   -4.1884 C.ar      1 <0>        -0.1128
     28 C22       -10.6337   -5.5914   -5.7159 C.2       1 <0>         0.5191
     29 O3        -11.7079   -6.1574   -5.8623 O.co2     1 <0>        -0.6810
     30 O4         -9.9844   -5.2496   -6.6941 O.co2     1 <0>        -0.6823
     31 H1          1.0053    1.8021    0.0021 H         1 <0>         0.1040
     32 H2         -0.5445    1.7859   -0.8732 H         1 <0>         0.0628
     33 H3         -0.5275    1.7763    0.9067 H         1 <0>         0.0570
     34 H4         -2.3345    1.1804    0.0211 H         1 <0>         0.1336
     35 H5         -4.5101    0.0296    0.0349 H         1 <0>         0.1326
     36 H6         -2.5225   -3.7442    0.0158 H         1 <0>         0.1235
     37 H7         -0.1764   -3.8079   -0.4506 H         1 <0>         0.0951
     38 H8          0.7698   -2.3083   -0.6064 H         1 <0>         0.1106
     39 H9          1.8506   -1.3234    1.3235 H         1 <0>         0.2152
     40 H10        -1.2406   -4.8280    0.8190 H         1 <0>         0.4297
     41 H11        -1.2315   -5.6366    2.2917 H         1 <0>         0.4283
     42 H12         2.5457   -2.8408    5.5537 H         1 <0>         0.4291
     43 H13         1.5509   -4.1796    5.7555 H         1 <0>         0.4437
     44 H14        -4.8842   -3.5867    0.5458 H         1 <0>         0.0756
     45 H15        -5.7137   -2.0118    0.5539 H         1 <0>         0.0792
     46 H16        -5.5395   -1.9073   -1.9174 H         1 <0>         0.0765
     47 H17        -4.7100   -3.4821   -1.9255 H         1 <0>         0.0750
     48 H18        -6.6992   -4.5353   -0.8852 H         1 <0>         0.0568
     49 H19        -7.5288   -2.9605   -0.8771 H         1 <0>         0.0581
     50 H20        -8.7908   -4.6201   -0.8112 H         1 <0>         0.1151
     51 H21       -10.9506   -5.7571   -1.1076 H         1 <0>         0.1170
     52 H22       -11.8096   -6.2106   -3.3658 H         1 <0>         0.1294
     53 H23        -8.3224   -4.3629   -5.0496 H         1 <0>         0.1339
     54 H24         2.5459   -1.7073    3.5357 H         1 <0>         0.4426
@<TRIPOS>BOND
     1    1    2 1
     2    1   31 1
     3    1   32 1
     4    1   33 1
     5    2    3 1
     6    3    8 ar
     7    3    4 ar
     8    4    5 ar
     9    4   34 1
    10    5    6 ar
    11    5   35 1
    12    6    7 ar
    13    6   18 1
    14    7    8 ar
    15    7   36 1
    16    8    9 1
    17    9   10 1
    18    9   37 1
    19    9   38 1
    20   10   15 ar
    21   10   11 ar
    22   11   12 ar
    23   11   39 1
    24   12   13 ar
    25   12   54 1
    26   13   14 ar
    27   13   17 1
    28   14   15 ar
    29   15   16 1
    30   16   40 1
    31   16   41 1
    32   17   42 1
    33   17   43 1
    34   18   19 1
    35   18   44 1
    36   18   45 1
    37   19   20 1
    38   19   46 1
    39   19   47 1
    40   20   21 1
    41   20   48 1
    42   20   49 1
    43   21   22 1
    44   22   27 ar
    45   22   23 ar
    46   23   24 ar
    47   23   50 1
    48   24   25 ar
    49   24   51 1
    50   25   26 ar
    51   25   52 1
    52   26   27 ar
    53   26   28 1
    54   27   53 1
    55   28   29 2
    56   28   30 1
@<TRIPOS>MOLECULE
CHEMBL267207
   35    37     0     0     0
SMALL
USER_CHARGES

@<TRIPOS>ATOM
      1 C1         -0.0163    1.3513    0.0095 C.2       1 <0>        -0.1576
      2 C2          1.1833    2.0380    0.0017 C.2       1 <0>        -0.1481
      3 C3          2.3426    1.3358   -0.0131 C.2       1 <0>        -0.1525
      4 S1          1.7535   -0.3495   -0.0166 S.3       1 <0>         0.0180
      5 C4          0.0021   -0.0041    0.0020 C.2       1 <0>        -0.1625
      6 C5          3.7608    1.8454   -0.0244 C.3       1 <0>        -0.0311
      7 C6          4.2547    2.0106    1.4143 C.3       1 <0>        -0.0844
      8 C7          5.6608    2.6218    1.4093 C.3       1 <0>        -0.1160
      9 C8          6.0335    2.9913    2.8443 C.3       1 <0>        -0.1006
     10 C9          5.8105    1.8213    3.7640 C.ar      1 <0>         0.2383
     11 C10         5.0217    0.7506    3.4213 C.ar      1 <0>        -0.2179
     12 C11         4.8667   -0.2896    4.3464 C.ar      1 <0>         0.5309
     13 N1          5.4863   -0.2132    5.5183 N.ar      1 <0>        -0.5770
     14 C12         6.2424    0.8344    5.8100 C.ar      1 <0>         0.6655
     15 N2          6.4034    1.8313    4.9553 N.ar      1 <0>        -0.5759
     16 N3          6.8788    0.8875    7.0378 N.pl3     1 <0>        -0.7930
     17 N4          4.0755   -1.3854    4.0424 N.pl3     1 <0>        -0.7771
     18 C13         4.3239    0.6435    2.0937 C.3       1 <0>        -0.0755
     19 H1         -0.9542    1.8866    0.0258 H         1 <0>         0.1369
     20 H2          1.1967    3.1179    0.0070 H         1 <0>         0.1341
     21 H3         -0.8275   -0.6955    0.0065 H         1 <0>         0.1878
     22 H4          4.3986    1.1333   -0.5480 H         1 <0>         0.0871
     23 H5          3.7967    2.8084   -0.5337 H         1 <0>         0.0981
     24 H6          3.5721    2.6587    1.9638 H         1 <0>         0.0898
     25 H7          6.3746    1.8953    1.0210 H         1 <0>         0.0843
     26 H8          5.6690    3.5165    0.7868 H         1 <0>         0.1001
     27 H9          7.0831    3.2830    2.8803 H         1 <0>         0.1119
     28 H10         5.4183    3.8294    3.1719 H         1 <0>         0.1200
     29 H11         6.7684    0.1629    7.6731 H         1 <0>         0.4447
     30 H12         7.4352    1.6494    7.2631 H         1 <0>         0.4300
     31 H13         3.6251   -1.4354    3.1848 H         1 <0>         0.4322
     32 H14         3.9720   -2.1026    4.6872 H         1 <0>         0.4285
     33 H15         3.3130    0.2660    2.2474 H         1 <0>         0.0925
     34 H16         4.8706   -0.0495    1.4542 H         1 <0>         0.0983
     35 H17         6.9639    2.5836    5.2017 H         1 <0>         0.4403
@<TRIPOS>BOND
     1    1    5 2
     2    1    2 1
     3    1   19 1
     4    2    3 2
     5    2   20 1
     6    3    4 1
     7    3    6 1
     8    4    5 1
     9    5   21 1
    10    6    7 1
    11    6   22 1
    12    6   23 1
    13    7   18 1
    14    7    8 1
    15    7   24 1
    16    8    9 1
    17    8   25 1
    18    8   26 1
    19    9   10 1
    20    9   27 1
    21    9   28 1
    22   10   15 ar
    23   10   11 ar
    24   11   12 ar
    25   11   18 1
    26   12   13 ar
    27   12   17 1
    28   13   14 ar
    29   14   15 ar
    30   14   16 1
    31   15   35 1
    32   16   29 1
    33   16   30 1
    34   17   31 1
    35   17   32 1
    36   18   33 1
    37   18   34 1
@<TRIPOS>MOLECULE
CHEMBL267207__1
   35    37     0     0     0
SMALL
USER_CHARGES

@<TRIPOS>ATOM
      1 C1         -0.0163    1.3513    0.0095 C.2       1 <0>        -0.1630
      2 C2          1.1833    2.0380    0.0017 C.2       1 <0>        -0.1579
      3 C3          2.3426    1.3358   -0.0131 C.2       1 <0>        -0.1530
      4 S1          1.7535   -0.3495   -0.0166 S.3       1 <0>         0.0423
      5 C4          0.0021   -0.0041    0.0020 C.2       1 <0>        -0.1644
      6 C5          3.7608    1.8454   -0.0244 C.3       1 <0>        -0.0315
      7 C6          4.2547    2.0106    1.4143 C.3       1 <0>        -0.0847
      8 C7          5.7282    2.4341    1.4077 C.3       1 <0>        -0.1161
      9 C8          6.2587    2.3645    2.8390 C.3       1 <0>        -0.1010
     10 C9          5.3471    3.1110    3.7750 C.ar      1 <0>         0.2388
     11 C10         4.0554    3.4400    3.4443 C.ar      1 <0>        -0.2189
     12 C11         3.2789    4.1295    4.3842 C.ar      1 <0>         0.5309
     13 N1          3.8119    4.4471    5.5582 N.ar      1 <0>        -0.5773
     14 C12         5.0633    4.1160    5.8381 C.ar      1 <0>         0.6657
     15 N2          5.8173    3.4625    4.9693 N.ar      1 <0>        -0.5759
     16 N3          5.5950    4.4622    7.0680 N.pl3     1 <0>        -0.7929
     17 N4          1.9699    4.4765    4.0922 N.pl3     1 <0>        -0.7777
     18 C13         3.4418    3.0986    2.1147 C.3       1 <0>        -0.0722
     19 H1         -0.9542    1.8866    0.0258 H         1 <0>         0.1352
     20 H2          1.1967    3.1179    0.0070 H         1 <0>         0.1307
     21 H3         -0.8275   -0.6955    0.0065 H         1 <0>         0.1872
     22 H4          4.3986    1.1333   -0.5480 H         1 <0>         0.0913
     23 H5          3.7967    2.8084   -0.5337 H         1 <0>         0.0934
     24 H6          4.1436    1.0680    1.9502 H         1 <0>         0.0889
     25 H7          6.3006    1.7588    0.7718 H         1 <0>         0.0999
     26 H8          5.8144    3.4545    1.0344 H         1 <0>         0.0844
     27 H9          6.3193    1.3217    3.1505 H         1 <0>         0.1202
     28 H10         7.2541    2.8070    2.8762 H         1 <0>         0.1120
     29 H11         5.0523    4.9417    7.7134 H         1 <0>         0.4447
     30 H12         6.5103    4.2253    7.2848 H         1 <0>         0.4301
     31 H13         1.5862    4.2420    3.2328 H         1 <0>         0.4316
     32 H14         1.4371    4.9540    4.7472 H         1 <0>         0.4284
     33 H15         3.4190    3.9907    1.4888 H         1 <0>         0.0980
     34 H16         2.4226    2.7441    2.2687 H         1 <0>         0.0925
     35 H17         6.7298    3.2353    5.2073 H         1 <0>         0.4404
@<TRIPOS>BOND
     1    1    5 2
     2    1    2 1
     3    1   19 1
     4    2    3 2
     5    2   20 1
     6    3    4 1
     7    3    6 1
     8    4    5 1
     9    5   21 1
    10    6    7 1
    11    6   22 1
    12    6   23 1
    13    7   18 1
    14    7    8 1
    15    7   24 1
    16    8    9 1
    17    8   25 1
    18    8   26 1
    19    9   10 1
    20    9   27 1
    21    9   28 1
    22   10   15 ar
    23   10   11 ar
    24   11   12 ar
    25   11   18 1
    26   12   13 ar
    27   12   17 1
    28   13   14 ar
    29   14   15 ar
    30   14   16 1
    31   15   35 1
    32   16   29 1
    33   16   30 1
    34   17   31 1
    35   17   32 1
    36   18   33 1
    37   18   34 1
@<TRIPOS>MOLECULE
CHEMBL33697
   57    59     0     0     0
SMALL
USER_CHARGES

@<TRIPOS>ATOM
      1 C1          2.5359   -0.7499   -0.3551 C.3       1 <0>        -0.1729
      2 C2          1.1952   -1.3054    0.1297 C.3       1 <0>         0.4024
      3 N1          0.1942   -1.1821   -0.9363 N.pl3     1 <0>        -0.6953
      4 C3         -1.0591   -0.9590   -0.6427 C.cat     1 <0>         0.7287
      5 N2         -1.4748   -0.7900    0.6241 N.2       1 <0>        -0.6357
      6 C4         -0.6096   -0.5907    1.6012 C.2       1 <0>         0.7315
      7 N3          0.7297   -0.5332    1.2921 N.pl3     1 <0>        -0.5930
      8 C5          1.6170    0.2325    2.0556 C.ar      1 <0>         0.0958
      9 C6          1.7482    1.5940    1.8127 C.ar      1 <0>        -0.0919
     10 C7          2.6250    2.3477    2.5679 C.ar      1 <0>        -0.0894
     11 C8          3.3727    1.7489    3.5651 C.ar      1 <0>        -0.0371
     12 C9          3.2451    0.3929    3.8097 C.ar      1 <0>        -0.0272
     13 C10         2.3642   -0.3656    3.0614 C.ar      1 <0>        -0.0978
     14 Cl1         4.1862   -0.3549    5.0623 Cl        1 <0>        -0.0350
     15 C11         4.3288    2.5746    4.3868 C.3       1 <0>        -0.0960
     16 C12         3.6824    2.9165    5.7307 C.3       1 <0>        -0.1123
     17 C13         4.6531    3.7548    6.5649 C.3       1 <0>        -0.1148
     18 C14         4.0067    4.0968    7.9089 C.3       1 <0>        -0.0942
     19 C15         4.9628    4.9224    8.7305 C.ar      1 <0>        -0.0139
     20 C16         5.7899    4.3088    9.6526 C.ar      1 <0>        -0.1172
     21 C17         6.6669    5.0660   10.4063 C.ar      1 <0>        -0.0267
     22 C18         6.7175    6.4375   10.2385 C.ar      1 <0>        -0.6759
     23 C19         5.8911    7.0520    9.3170 C.ar      1 <0>         0.0024
     24 C20         5.0170    6.2939    8.5581 C.ar      1 <0>        -0.0520
     25 Cl2         3.9833    7.0645    7.3956 Cl        1 <0>        -0.0463
     26 S1          7.8353    7.4019   11.2002 S.o2      1 <0>         2.6713
     27 O1          9.0487    7.4717   10.4638 O.2       1 <0>        -0.9144
     28 O2          7.1237    8.5624   11.6077 O.2       1 <0>        -0.9166
     29 F1          8.1564    6.5656   12.5379 F         1 <0>        -0.4652
     30 N4         -1.0354   -0.4446    2.8922 N.pl3     1 <0>        -0.7695
     31 N5         -1.9846   -0.8945   -1.6648 N.pl3     1 <0>        -0.7912
     32 C21         1.3569   -2.7762    0.5189 C.3       1 <0>        -0.1818
     33 H1          3.2917   -0.9005    0.4158 H         1 <0>         0.1011
     34 H2          2.8366   -1.2691   -1.2651 H         1 <0>         0.0997
     35 H3          2.4345    0.3156   -0.5613 H         1 <0>         0.0834
     36 H4          1.1653    2.0625    1.0337 H         1 <0>         0.1337
     37 H5          2.7270    3.4062    2.3791 H         1 <0>         0.1482
     38 H6          2.2611   -1.4230    3.2556 H         1 <0>         0.1445
     39 H7          5.2441    2.0079    4.5576 H         1 <0>         0.0892
     40 H8          4.5656    3.4949    3.8529 H         1 <0>         0.0863
     41 H9          2.7671    3.4832    5.5599 H         1 <0>         0.0683
     42 H10         3.4457    1.9962    6.2646 H         1 <0>         0.0706
     43 H11         5.5684    3.1881    6.7357 H         1 <0>         0.0710
     44 H12         4.8899    4.6751    6.0310 H         1 <0>         0.0721
     45 H13         3.0914    4.6635    7.7381 H         1 <0>         0.0877
     46 H14         3.7699    3.1764    8.4428 H         1 <0>         0.0855
     47 H15         5.7506    3.2376    9.7844 H         1 <0>         0.1475
     48 H16         7.3126    4.5862   11.1269 H         1 <0>         0.1477
     49 H17         5.9305    8.1234    9.1862 H         1 <0>         0.1537
     50 H18        -1.9757   -0.5466    3.1072 H         1 <0>         0.4413
     51 H19        -0.3971   -0.2389    3.5930 H         1 <0>         0.4298
     52 H20        -1.7005   -1.0140   -2.5845 H         1 <0>         0.4293
     53 H21        -2.9190   -0.7296   -1.4633 H         1 <0>         0.4411
     54 H22         2.0936   -2.8618    1.3177 H         1 <0>         0.0967
     55 H23         0.4000   -3.1681    0.8636 H         1 <0>         0.0724
     56 H24         1.6923   -3.3465   -0.3474 H         1 <0>         0.0980
     57 H25         0.4645   -1.2670   -1.8640 H         1 <0>         0.4322
@<TRIPOS>BOND
     1    1    2 1
     2    1   33 1
     3    1   34 1
     4    1   35 1
     5    2    7 1
     6    2    3 1
     7    2   32 1
     8    3    4 2
     9    3   57 1
    10    4    5 1
    11    4   31 1
    12    5    6 2
    13    6    7 1
    14    6   30 1
    15    7    8 1
    16    8   13 ar
    17    8    9 ar
    18    9   10 ar
    19    9   36 1
    20   10   11 ar
    21   10   37 1
    22   11   12 ar
    23   11   15 1
    24   12   13 ar
    25   12   14 1
    26   13   38 1
    27   15   16 1
    28   15   39 1
    29   15   40 1
    30   16   17 1
    31   16   41 1
    32   16   42 1
    33   17   18 1
    34   17   43 1
    35   17   44 1
    36   18   19 1
    37   18   45 1
    38   18   46 1
    39   19   24 ar
    40   19   20 ar
    41   20   21 ar
    42   20   47 1
    43   21   22 ar
    44   21   48 1
    45   22   23 ar
    46   22   26 1
    47   23   24 ar
    48   23   49 1
    49   24   25 1
    50   26   27 2
    51   26   28 2
    52   26   29 1
    53   30   50 1
    54   30   51 1
    55   31   52 1
    56   31   53 1
    57   32   54 1
    58   32   55 1
    59   32   56 1
@<TRIPOS>MOLECULE
CHEMBL148591
   48    51     0     0     0
SMALL
USER_CHARGES

@<TRIPOS>ATOM
      1 C1          0.2960    1.5138    0.1445 C.3       1 <0>        -0.1772
      2 C2          0.4576    0.0165    0.0899 C.ar      1 <0>         0.0777
      3 C3          0.7783   -0.6161   -1.0827 C.ar      1 <0>        -0.2807
      4 C4          0.9221   -1.9978   -1.1067 C.ar      1 <0>         0.2163
      5 N1          0.7586   -2.7295   -0.0271 N.ar      1 <0>        -0.4753
      6 C5          0.4459   -2.1737    1.1436 C.ar      1 <0>         0.4353
      7 C6          0.2902   -0.7685    1.2363 C.ar      1 <0>        -0.2880
      8 C7         -0.0370   -0.2049    2.4945 C.ar      1 <0>         0.5294
      9 N2         -0.1779   -1.0204    3.5298 N.ar      1 <0>        -0.6083
     10 C8         -0.0183   -2.3344    3.4010 C.ar      1 <0>         0.6396
     11 N3          0.2763   -2.9106    2.2507 N.ar      1 <0>        -0.5881
     12 N4         -0.1785   -3.1321    4.5178 N.pl3     1 <0>        -0.7960
     13 N5         -0.2040    1.1550    2.6380 N.pl3     1 <0>        -0.8419
     14 C9          0.9742    0.1853   -2.3439 C.3       1 <0>         0.0525
     15 N6          2.3168    0.7814   -2.3416 N.4       1 <0>        -0.5099
     16 C10         2.4632    1.6628   -3.5077 C.3       1 <0>         0.0833
     17 C11         2.3487    0.8323   -4.7843 C.3       1 <0>        -0.1427
     18 C12         2.7189    1.7234   -5.9758 C.3       1 <0>        -0.1153
     19 C13         4.2177    2.0113   -5.9144 C.3       1 <0>        -0.0972
     20 C14         4.6041    2.5172   -4.5492 C.ar      1 <0>        -0.0365
     21 C15         3.8001    2.3538   -3.4433 C.ar      1 <0>        -0.1417
     22 C16         4.2187    2.8387   -2.2111 C.ar      1 <0>        -0.1268
     23 C17         5.4312    3.4855   -2.0873 C.ar      1 <0>        -0.1085
     24 C18         6.2364    3.6529   -3.1982 C.ar      1 <0>        -0.0867
     25 C19         5.8232    3.1702   -4.4229 C.ar      1 <0>        -0.1114
     26 H1          1.2223    1.9665    0.4984 H         1 <0>         0.0939
     27 H2          0.0647    1.8909   -0.8517 H         1 <0>         0.0835
     28 H3         -0.5158    1.7670    0.8264 H         1 <0>         0.1193
     29 H4          1.1747   -2.4837   -2.0376 H         1 <0>         0.1729
     30 H5         -0.4026   -2.7312    5.3722 H         1 <0>         0.4225
     31 H6         -0.0668   -4.0931    4.4474 H         1 <0>         0.4247
     32 H7         -0.9236    1.4998    3.1894 H         1 <0>         0.4173
     33 H8          0.3981    1.7677    2.1875 H         1 <0>         0.4170
     34 H9          0.8683   -0.4682   -3.2098 H         1 <0>         0.1460
     35 H10         0.2256    0.9761   -2.3917 H         1 <0>         0.1400
     36 H11         2.4454    1.3174   -1.4965 H         1 <0>         0.4187
     37 H12         1.6708    2.4112   -3.4941 H         1 <0>         0.1460
     38 H13         3.0322   -0.0152   -4.7334 H         1 <0>         0.0921
     39 H14         1.3258    0.4733   -4.8982 H         1 <0>         0.0974
     40 H15         2.4818    1.2087   -6.9069 H         1 <0>         0.0932
     41 H16         2.1628    2.6593   -5.9212 H         1 <0>         0.0788
     42 H17         4.7686    1.0952   -6.1275 H         1 <0>         0.0906
     43 H18         4.4701    2.7639   -6.6614 H         1 <0>         0.0920
     44 H19         3.5899    2.7088   -1.3428 H         1 <0>         0.1154
     45 H20         5.7499    3.8599   -1.1257 H         1 <0>         0.1351
     46 H21         7.1856    4.1603   -3.1079 H         1 <0>         0.1367
     47 H22         6.4530    3.3011   -5.2904 H         1 <0>         0.1362
     48 H23         3.0099    0.0493   -2.3843 H         1 <0>         0.4288
@<TRIPOS>BOND
     1    1    2 1
     2    1   26 1
     3    1   27 1
     4    1   28 1
     5    2    7 ar
     6    2    3 ar
     7    3    4 ar
     8    3   14 1
     9    4    5 ar
    10    4   29 1
    11    5    6 ar
    12    6   11 ar
    13    6    7 ar
    14    7    8 ar
    15    8    9 ar
    16    8   13 1
    17    9   10 ar
    18   10   11 ar
    19   10   12 1
    20   12   30 1
    21   12   31 1
    22   13   32 1
    23   13   33 1
    24   14   15 1
    25   14   34 1
    26   14   35 1
    27   15   16 1
    28   15   36 1
    29   15   48 1
    30   16   21 1
    31   16   17 1
    32   16   37 1
    33   17   18 1
    34   17   38 1
    35   17   39 1
    36   18   19 1
    37   18   40 1
    38   18   41 1
    39   19   20 1
    40   19   42 1
    41   19   43 1
    42   20   25 ar
    43   20   21 ar
    44   21   22 ar
    45   22   23 ar
    46   22   44 1
    47   23   24 ar
    48   23   45 1
    49   24   25 ar
    50   24   46 1
    51   25   47 1
@<TRIPOS>MOLECULE
CHEMBL148591__1
   49    52     0     0     0
SMALL
USER_CHARGES

@<TRIPOS>ATOM
      1 C1          0.2960    1.5138    0.1445 C.3       1 <0>        -0.1905
      2 C2          0.4576    0.0165    0.0899 C.ar      1 <0>         0.0898
      3 C3          0.7783   -0.6161   -1.0827 C.ar      1 <0>        -0.2369
      4 C4          0.9221   -1.9978   -1.1067 C.ar      1 <0>         0.2516
      5 N1          0.7586   -2.7295   -0.0271 N.ar      1 <0>        -0.4890
      6 C5          0.4459   -2.1737    1.1436 C.ar      1 <0>         0.4362
      7 C6          0.2902   -0.7685    1.2363 C.ar      1 <0>        -0.2419
      8 C7         -0.0370   -0.2049    2.4945 C.ar      1 <0>         0.5777
      9 N2         -0.1779   -1.0204    3.5298 N.ar      1 <0>        -0.5672
     10 C8         -0.0183   -2.3344    3.4010 C.ar      1 <0>         0.7039
     11 N3          0.2763   -2.9106    2.2507 N.ar      1 <0>        -0.5750
     12 N4         -0.1785   -3.1321    4.5178 N.pl3     1 <0>        -0.7610
     13 N5         -0.2040    1.1550    2.6380 N.pl3     1 <0>        -0.7998
     14 C9          0.9742    0.1853   -2.3439 C.3       1 <0>         0.0408
     15 N6          2.3168    0.7814   -2.3416 N.4       1 <0>        -0.5110
     16 C10         2.4632    1.6628   -3.5077 C.3       1 <0>         0.0850
     17 C11         2.3487    0.8323   -4.7843 C.3       1 <0>        -0.1436
     18 C12         2.7189    1.7234   -5.9758 C.3       1 <0>        -0.1160
     19 C13         4.2177    2.0113   -5.9144 C.3       1 <0>        -0.1001
     20 C14         4.6041    2.5172   -4.5492 C.ar      1 <0>        -0.0323
     21 C15         3.8001    2.3538   -3.4433 C.ar      1 <0>        -0.1484
     22 C16         4.2187    2.8387   -2.2111 C.ar      1 <0>        -0.1299
     23 C17         5.4312    3.4855   -2.0873 C.ar      1 <0>        -0.1077
     24 C18         6.2364    3.6529   -3.1982 C.ar      1 <0>        -0.0818
     25 C19         5.8232    3.1702   -4.4229 C.ar      1 <0>        -0.1083
     26 H1          1.2223    1.9665    0.4984 H         1 <0>         0.1132
     27 H2          0.0647    1.8909   -0.8517 H         1 <0>         0.1043
     28 H3         -0.5158    1.7670    0.8264 H         1 <0>         0.1262
     29 H4          1.1747   -2.4837   -2.0376 H         1 <0>         0.2007
     30 H5         -0.4026   -2.7312    5.3722 H         1 <0>         0.4536
     31 H6         -0.0668   -4.0931    4.4474 H         1 <0>         0.4389
     32 H7         -0.9236    1.4998    3.1894 H         1 <0>         0.4368
     33 H8          0.3981    1.7677    2.1875 H         1 <0>         0.4343
     34 H9          0.8683   -0.4682   -3.2098 H         1 <0>         0.1591
     35 H10         0.2256    0.9761   -2.3917 H         1 <0>         0.1538
     36 H11         2.4454    1.3174   -1.4965 H         1 <0>         0.4193
     37 H12         1.6708    2.4112   -3.4941 H         1 <0>         0.1498
     38 H13         3.0322   -0.0152   -4.7334 H         1 <0>         0.0929
     39 H14         1.3258    0.4733   -4.8982 H         1 <0>         0.0970
     40 H15         2.4818    1.2087   -6.9069 H         1 <0>         0.0963
     41 H16         2.1628    2.6593   -5.9212 H         1 <0>         0.0808
     42 H17         4.7686    1.0952   -6.1275 H         1 <0>         0.0925
     43 H18         4.4701    2.7639   -6.6614 H         1 <0>         0.0956
     44 H19         3.5899    2.7088   -1.3428 H         1 <0>         0.1118
     45 H20         5.7499    3.8599   -1.1257 H         1 <0>         0.1362
     46 H21         7.1856    4.1603   -3.1079 H         1 <0>         0.1397
     47 H22         6.4530    3.3011   -5.2904 H         1 <0>         0.1394
     48 H23         3.0099    0.0493   -2.3843 H         1 <0>         0.4313
     49 H24         0.3819   -3.8739    2.2083 H         1 <0>         0.4521
@<TRIPOS>BOND
     1    1    2 1
     2    1   26 1
     3    1   27 1
     4    1   28 1
     5    2    7 ar
     6    2    3 ar
     7    3    4 ar
     8    3   14 1
     9    4    5 ar
    10    4   29 1
    11    5    6 ar
    12    6   11 ar
    13    6    7 ar
    14    7    8 ar
    15    8    9 ar
    16    8   13 1
    17    9   10 ar
    18   10   11 ar
    19   10   12 1
    20   11   49 1
    21   12   30 1
    22   12   31 1
    23   13   32 1
    24   13   33 1
    25   14   15 1
    26   14   34 1
    27   14   35 1
    28   15   16 1
    29   15   36 1
    30   15   48 1
    31   16   21 1
    32   16   17 1
    33   16   37 1
    34   17   18 1
    35   17   38 1
    36   17   39 1
    37   18   19 1
    38   18   40 1
    39   18   41 1
    40   19   20 1
    41   19   42 1
    42   19   43 1
    43   20   25 ar
    44   20   21 ar
    45   21   22 ar
    46   22   23 ar
    47   22   44 1
    48   23   24 ar
    49   23   45 1
    50   24   25 ar
    51   24   46 1
    52   25   47 1
@<TRIPOS>MOLECULE
CHEMBL148591__2
   48    51     0     0     0
SMALL
USER_CHARGES

@<TRIPOS>ATOM
      1 C1          0.6374    0.8492   -0.1057 C.3       1 <0>        -0.1772
      2 C2          0.7906   -0.6449   -0.2285 C.ar      1 <0>         0.0796
      3 C3          1.0451   -1.2307   -1.4411 C.ar      1 <0>        -0.2817
      4 C4          1.1826   -2.6105   -1.5278 C.ar      1 <0>         0.2155
      5 N1          1.0753   -3.3845   -0.4708 N.ar      1 <0>        -0.4755
      6 C5          0.8285   -2.8754    0.7364 C.ar      1 <0>         0.4353
      7 C6          0.6829   -1.4748    0.8932 C.ar      1 <0>        -0.2884
      8 C7          0.4263   -0.9615    2.1887 C.ar      1 <0>         0.5296
      9 N2          0.3389   -1.8174    3.1969 N.ar      1 <0>        -0.6082
     10 C8          0.4868   -3.1254    3.0074 C.ar      1 <0>         0.6395
     11 N3          0.7167   -3.6556    1.8208 N.ar      1 <0>        -0.5882
     12 N4          0.3846   -3.9669    4.0987 N.pl3     1 <0>        -0.7960
     13 N5          0.2720    0.3918    2.3949 N.pl3     1 <0>        -0.8419
     14 C9          1.1751   -0.3799   -2.6781 C.3       1 <0>         0.0526
     15 N6          2.5180    0.2139   -2.7251 N.4       1 <0>        -0.5100
     16 C10         2.6865    0.9443   -3.9885 C.3       1 <0>         0.0830
     17 C11         1.7085    2.1169   -4.0265 C.3       1 <0>        -0.1426
     18 C12         2.0460    2.9888   -5.2418 C.3       1 <0>        -0.1153
     19 C13         3.3767    3.6901   -4.9766 C.3       1 <0>        -0.0965
     20 C14         4.4238    2.6948   -4.5501 C.ar      1 <0>        -0.0380
     21 C15         4.1067    1.4353   -4.0927 C.ar      1 <0>        -0.1423
     22 C16         5.1207    0.5677   -3.7087 C.ar      1 <0>        -0.1260
     23 C17         6.4424    0.9561   -3.7852 C.ar      1 <0>        -0.1081
     24 C18         6.7609    2.2190   -4.2480 C.ar      1 <0>        -0.0868
     25 C19         5.7548    3.0832   -4.6282 C.ar      1 <0>        -0.1123
     26 H1          1.5835    1.2864    0.2133 H         1 <0>         0.0948
     27 H2          0.3520    1.2658   -1.0717 H         1 <0>         0.0835
     28 H3         -0.1341    1.0761    0.6301 H         1 <0>         0.1189
     29 H4          1.3827   -3.0592   -2.4895 H         1 <0>         0.1727
     30 H5          0.2086   -3.6000    4.9792 H         1 <0>         0.4225
     31 H6          0.4890   -4.9244    3.9842 H         1 <0>         0.4247
     32 H7         -0.4164    0.7153    2.9969 H         1 <0>         0.4173
     33 H8          0.8519    1.0212    1.9382 H         1 <0>         0.4172
     34 H9          1.0202   -0.9982   -3.5623 H         1 <0>         0.1451
     35 H10         0.4278    0.4132   -2.6538 H         1 <0>         0.1408
     36 H11         2.6314    0.8508   -1.9507 H         1 <0>         0.4214
     37 H12         2.4758    0.2741   -4.8219 H         1 <0>         0.1489
     38 H13         0.6890    1.7419   -4.1155 H         1 <0>         0.0965
     39 H14         1.8054    2.7055   -3.1142 H         1 <0>         0.0892
     40 H15         2.1313    2.3631   -6.1302 H         1 <0>         0.0799
     41 H16         1.2623    3.7319   -5.3895 H         1 <0>         0.0927
     42 H17         3.7065    4.1912   -5.8867 H         1 <0>         0.0920
     43 H18         3.2420    4.4304   -4.1880 H         1 <0>         0.0894
     44 H19         4.8726   -0.4192   -3.3469 H         1 <0>         0.1188
     45 H20         7.2255    0.2757   -3.4848 H         1 <0>         0.1357
     46 H21         7.7938    2.5283   -4.3116 H         1 <0>         0.1366
     47 H22         6.0045    4.0699   -4.9895 H         1 <0>         0.1358
     48 H23         3.2111   -0.5167   -2.6640 H         1 <0>         0.4256
@<TRIPOS>BOND
     1    1    2 1
     2    1   26 1
     3    1   27 1
     4    1   28 1
     5    2    7 ar
     6    2    3 ar
     7    3    4 ar
     8    3   14 1
     9    4    5 ar
    10    4   29 1
    11    5    6 ar
    12    6   11 ar
    13    6    7 ar
    14    7    8 ar
    15    8    9 ar
    16    8   13 1
    17    9   10 ar
    18   10   11 ar
    19   10   12 1
    20   12   30 1
    21   12   31 1
    22   13   32 1
    23   13   33 1
    24   14   15 1
    25   14   34 1
    26   14   35 1
    27   15   16 1
    28   15   36 1
    29   15   48 1
    30   16   21 1
    31   16   17 1
    32   16   37 1
    33   17   18 1
    34   17   38 1
    35   17   39 1
    36   18   19 1
    37   18   40 1
    38   18   41 1
    39   19   20 1
    40   19   42 1
    41   19   43 1
    42   20   25 ar
    43   20   21 ar
    44   21   22 ar
    45   22   23 ar
    46   22   44 1
    47   23   24 ar
    48   23   45 1
    49   24   25 ar
    50   24   46 1
    51   25   47 1
@<TRIPOS>MOLECULE
CHEMBL148591__3
   49    52     0     0     0
SMALL
USER_CHARGES

@<TRIPOS>ATOM
      1 C1          0.6374    0.8492   -0.1057 C.3       1 <0>        -0.1906
      2 C2          0.7906   -0.6449   -0.2285 C.ar      1 <0>         0.0916
      3 C3          1.0451   -1.2307   -1.4411 C.ar      1 <0>        -0.2378
      4 C4          1.1826   -2.6105   -1.5278 C.ar      1 <0>         0.2508
      5 N1          1.0753   -3.3845   -0.4708 N.ar      1 <0>        -0.4892
      6 C5          0.8285   -2.8754    0.7364 C.ar      1 <0>         0.4361
      7 C6          0.6829   -1.4748    0.8932 C.ar      1 <0>        -0.2421
      8 C7          0.4263   -0.9615    2.1887 C.ar      1 <0>         0.5778
      9 N2          0.3389   -1.8174    3.1969 N.ar      1 <0>        -0.5671
     10 C8          0.4868   -3.1254    3.0074 C.ar      1 <0>         0.7038
     11 N3          0.7167   -3.6556    1.8208 N.ar      1 <0>        -0.5750
     12 N4          0.3846   -3.9669    4.0987 N.pl3     1 <0>        -0.7611
     13 N5          0.2720    0.3918    2.3949 N.pl3     1 <0>        -0.7998
     14 C9          1.1751   -0.3799   -2.6781 C.3       1 <0>         0.0409
     15 N6          2.5180    0.2139   -2.7251 N.4       1 <0>        -0.5111
     16 C10         2.6865    0.9443   -3.9885 C.3       1 <0>         0.0846
     17 C11         1.7085    2.1169   -4.0265 C.3       1 <0>        -0.1433
     18 C12         2.0460    2.9888   -5.2418 C.3       1 <0>        -0.1162
     19 C13         3.3767    3.6901   -4.9766 C.3       1 <0>        -0.0991
     20 C14         4.4238    2.6948   -4.5501 C.ar      1 <0>        -0.0341
     21 C15         4.1067    1.4353   -4.0927 C.ar      1 <0>        -0.1489
     22 C16         5.1207    0.5677   -3.7087 C.ar      1 <0>        -0.1289
     23 C17         6.4424    0.9561   -3.7852 C.ar      1 <0>        -0.1072
     24 C18         6.7609    2.2190   -4.2480 C.ar      1 <0>        -0.0818
     25 C19         5.7548    3.0832   -4.6282 C.ar      1 <0>        -0.1093
     26 H1          1.5835    1.2864    0.2133 H         1 <0>         0.1143
     27 H2          0.3520    1.2658   -1.0717 H         1 <0>         0.1042
     28 H3         -0.1341    1.0761    0.6301 H         1 <0>         0.1259
     29 H4          1.3827   -3.0592   -2.4895 H         1 <0>         0.2005
     30 H5          0.2086   -3.6000    4.9792 H         1 <0>         0.4536
     31 H6          0.4890   -4.9244    3.9842 H         1 <0>         0.4389
     32 H7         -0.4164    0.7153    2.9969 H         1 <0>         0.4368
     33 H8          0.8519    1.0212    1.9382 H         1 <0>         0.4345
     34 H9          1.0202   -0.9982   -3.5623 H         1 <0>         0.1586
     35 H10         0.4278    0.4132   -2.6538 H         1 <0>         0.1542
     36 H11         2.6314    0.8508   -1.9507 H         1 <0>         0.4229
     37 H12         2.4758    0.2741   -4.8219 H         1 <0>         0.1526
     38 H13         0.6890    1.7419   -4.1155 H         1 <0>         0.0961
     39 H14         1.8054    2.7055   -3.1142 H         1 <0>         0.0900
     40 H15         2.1313    2.3631   -6.1302 H         1 <0>         0.0819
     41 H16         1.2623    3.7319   -5.3895 H         1 <0>         0.0959
     42 H17         3.7065    4.1912   -5.8867 H         1 <0>         0.0955
     43 H18         3.2420    4.4304   -4.1880 H         1 <0>         0.0912
     44 H19         4.8726   -0.4192   -3.3469 H         1 <0>         0.1152
     45 H20         7.2255    0.2757   -3.4848 H         1 <0>         0.1367
     46 H21         7.7938    2.5283   -4.3116 H         1 <0>         0.1396
     47 H22         6.0045    4.0699   -4.9895 H         1 <0>         0.1389
     48 H23         3.2111   -0.5167   -2.6640 H         1 <0>         0.4272
     49 H24         0.8164   -4.6166    1.7345 H         1 <0>         0.4521
@<TRIPOS>BOND
     1    1    2 1
     2    1   26 1
     3    1   27 1
     4    1   28 1
     5    2    7 ar
     6    2    3 ar
     7    3    4 ar
     8    3   14 1
     9    4    5 ar
    10    4   29 1
    11    5    6 ar
    12    6   11 ar
    13    6    7 ar
    14    7    8 ar
    15    8    9 ar
    16    8   13 1
    17    9   10 ar
    18   10   11 ar
    19   10   12 1
    20   11   49 1
    21   12   30 1
    22   12   31 1
    23   13   32 1
    24   13   33 1
    25   14   15 1
    26   14   34 1
    27   14   35 1
    28   15   16 1
    29   15   36 1
    30   15   48 1
    31   16   21 1
    32   16   17 1
    33   16   37 1
    34   17   18 1
    35   17   38 1
    36   17   39 1
    37   18   19 1
    38   18   40 1
    39   18   41 1
    40   19   20 1
    41   19   42 1
    42   19   43 1
    43   20   25 ar
    44   20   21 ar
    45   21   22 ar
    46   22   23 ar
    47   22   44 1
    48   23   24 ar
    49   23   45 1
    50   24   25 ar
    51   24   46 1
    52   25   47 1
@<TRIPOS>MOLECULE
CHEMBL36639
   54    56     0     0     0
SMALL
USER_CHARGES

@<TRIPOS>ATOM
      1 C1         -0.0169    1.3937    0.0097 C.ar      1 <0>        -0.0180
      2 C2          1.1662    2.0965    0.0022 C.ar      1 <0>        -0.2040
      3 C3          2.3811    1.4169   -0.0131 C.ar      1 <0>         0.2217
      4 C4          2.4034    0.0249   -0.0208 C.ar      1 <0>        -0.2021
      5 C5          1.2237   -0.6836   -0.0138 C.ar      1 <0>        -0.0371
      6 C6          0.0021   -0.0041    0.0020 C.ar      1 <0>        -0.1630
      7 C7         -1.2644   -0.7605    0.0105 C.2       1 <0>         0.5540
      8 O1         -2.3263   -0.1682    0.0243 O.2       1 <0>        -0.5624
      9 N1         -1.2445   -2.1081    0.0031 N.am      1 <0>        -0.6784
     10 C8         -2.5022   -2.8593    0.0116 C.3       1 <0>         0.0735
     11 C9         -2.2637   -4.2464    0.6114 C.3       1 <0>        -0.0807
     12 C10        -1.8670   -4.1047    2.0823 C.3       1 <0>        -0.1773
     13 C11        -1.6321   -5.4710    2.6731 C.2       1 <0>         0.4911
     14 O2         -1.7693   -6.4659    1.9818 O.co2     1 <0>        -0.6978
     15 O3         -1.3049   -5.5815    3.8424 O.co2     1 <0>        -0.7204
     16 C12        -3.0110   -3.0030   -1.3996 C.2       1 <0>         0.4970
     17 O4         -2.3006   -2.6873   -2.3389 O.co2     1 <0>        -0.6981
     18 O5         -4.1331   -3.4348   -1.6021 O.co2     1 <0>        -0.7026
     19 N2          3.5749    2.1299   -0.0211 N.pl3     1 <0>        -0.7488
     20 C13         4.8542    1.4162   -0.0371 C.3       1 <0>         0.1194
     21 C14         6.0023    2.4276   -0.0432 C.3       1 <0>         0.1498
     22 C15         7.3420    1.6951    0.1112 C.3       1 <0>        -0.1320
     23 C16         8.4748    2.7192    0.0480 C.3       1 <0>        -0.0541
     24 C17         8.2231    3.8472    1.0133 C.2       1 <0>         0.1101
     25 C18         6.9728    4.1195    1.4828 C.2       1 <0>         0.0151
     26 C19         6.7911    5.1947    2.3793 C.2       1 <0>         0.5346
     27 N3          7.8691    5.9195    2.7478 N.am      1 <0>        -0.6438
     28 C20         9.0957    5.5993    2.2517 C.2       1 <0>         0.5904
     29 N4          9.2555    4.5976    1.4156 N.2       1 <0>        -0.5581
     30 N5         10.1880    6.3376    2.6323 N.pl3     1 <0>        -0.8322
     31 O6          5.6823    5.4639    2.8121 O.2       1 <0>        -0.5339
     32 N6          5.8632    3.3466    1.0956 N.pl3     1 <0>        -0.7267
     33 H1         -0.9590    1.9215    0.0260 H         1 <0>         0.1327
     34 H2          1.1522    3.1764    0.0078 H         1 <0>         0.1193
     35 H3          3.3474   -0.4995   -0.0326 H         1 <0>         0.1220
     36 H4          1.2416   -1.7634   -0.0204 H         1 <0>         0.1279
     37 H5         -0.3974   -2.5806   -0.0078 H         1 <0>         0.3887
     38 H6         -3.2399   -2.3261    0.6112 H         1 <0>         0.0772
     39 H7         -3.1771   -4.8365    0.5367 H         1 <0>         0.0760
     40 H8         -1.4631   -4.7456    0.0656 H         1 <0>         0.0559
     41 H9         -0.9536   -3.5146    2.1570 H         1 <0>         0.0510
     42 H10        -2.6677   -3.6056    2.6281 H         1 <0>         0.0524
     43 H11         3.5606    3.0997   -0.0161 H         1 <0>         0.3981
     44 H12         4.9299    0.7860    0.8490 H         1 <0>         0.0693
     45 H13         4.9126    0.7950   -0.9309 H         1 <0>         0.0773
     46 H14         5.9934    2.9911   -0.9762 H         1 <0>         0.0738
     47 H15         7.3682    1.1804    1.0717 H         1 <0>         0.0774
     48 H16         7.4580    0.9719   -0.6960 H         1 <0>         0.0889
     49 H17         9.4154    2.2310    0.3031 H         1 <0>         0.0895
     50 H18         8.5412    3.1198   -0.9635 H         1 <0>         0.0821
     51 H19        10.0815    7.0789    3.2487 H         1 <0>         0.4095
     52 H20        11.0667    6.1181    2.2849 H         1 <0>         0.4249
     53 H21         5.0210    3.4190    1.5714 H         1 <0>         0.4088
     54 H22         7.7701    6.6638    3.3619 H         1 <0>         0.4122
@<TRIPOS>BOND
     1    1    6 ar
     2    1    2 ar
     3    1   33 1
     4    2    3 ar
     5    2   34 1
     6    3    4 ar
     7    3   19 1
     8    4    5 ar
     9    4   35 1
    10    5    6 ar
    11    5   36 1
    12    6    7 1
    13    7    8 2
    14    7    9 am
    15    9   10 1
    16    9   37 1
    17   10   11 1
    18   10   16 1
    19   10   38 1
    20   11   12 1
    21   11   39 1
    22   11   40 1
    23   12   13 1
    24   12   41 1
    25   12   42 1
    26   13   14 2
    27   13   15 1
    28   16   17 2
    29   16   18 1
    30   19   20 1
    31   19   43 1
    32   20   21 1
    33   20   44 1
    34   20   45 1
    35   21   32 1
    36   21   22 1
    37   21   46 1
    38   22   23 1
    39   22   47 1
    40   22   48 1
    41   23   24 1
    42   23   49 1
    43   23   50 1
    44   24   29 1
    45   24   25 2
    46   25   26 1
    47   25   32 1
    48   26   27 am
    49   26   31 2
    50   27   28 1
    51   27   54 1
    52   28   29 2
    53   28   30 1
    54   30   51 1
    55   30   52 1
    56   32   53 1
@<TRIPOS>MOLECULE
CHEMBL36639__1
   54    56     0     0     0
SMALL
USER_CHARGES

@<TRIPOS>ATOM
      1 C1         -0.0169    1.3937    0.0097 C.ar      1 <0>        -0.0180
      2 C2          1.1662    2.0965    0.0022 C.ar      1 <0>        -0.2039
      3 C3          2.3811    1.4169   -0.0131 C.ar      1 <0>         0.2216
      4 C4          2.4034    0.0249   -0.0208 C.ar      1 <0>        -0.2020
      5 C5          1.2237   -0.6836   -0.0138 C.ar      1 <0>        -0.0371
      6 C6          0.0021   -0.0041    0.0020 C.ar      1 <0>        -0.1629
      7 C7         -1.2644   -0.7605    0.0105 C.2       1 <0>         0.5540
      8 O1         -2.3263   -0.1682    0.0243 O.2       1 <0>        -0.5624
      9 N1         -1.2445   -2.1081    0.0031 N.am      1 <0>        -0.6784
     10 C8         -2.5022   -2.8593    0.0116 C.3       1 <0>         0.0735
     11 C9         -2.2637   -4.2464    0.6114 C.3       1 <0>        -0.0808
     12 C10        -1.8670   -4.1047    2.0823 C.3       1 <0>        -0.1772
     13 C11        -1.6321   -5.4710    2.6731 C.2       1 <0>         0.4911
     14 O2         -1.7693   -6.4659    1.9818 O.co2     1 <0>        -0.6978
     15 O3         -1.3049   -5.5815    3.8424 O.co2     1 <0>        -0.7205
     16 C12        -3.0110   -3.0030   -1.3996 C.2       1 <0>         0.4968
     17 O4         -2.3006   -2.6873   -2.3389 O.co2     1 <0>        -0.6979
     18 O5         -4.1331   -3.4348   -1.6021 O.co2     1 <0>        -0.7027
     19 N2          3.5749    2.1299   -0.0211 N.pl3     1 <0>        -0.7488
     20 C13         4.8542    1.4162   -0.0371 C.3       1 <0>         0.1194
     21 C14         6.0023    2.4276   -0.0432 C.3       1 <0>         0.1497
     22 C15         7.3387    1.6968   -0.2311 C.3       1 <0>        -0.1320
     23 C16         8.4726    2.7204   -0.1797 C.3       1 <0>        -0.0541
     24 C17         8.2023    3.8580   -1.1284 C.2       1 <0>         0.1100
     25 C18         6.9430    4.1349   -1.5707 C.2       1 <0>         0.0151
     26 C19         6.7441    5.2190   -2.4526 C.2       1 <0>         0.5345
     27 N3          7.8147    5.9476   -2.8348 N.am      1 <0>        -0.6437
     28 C20         9.0507    5.6226   -2.3659 C.2       1 <0>         0.5902
     29 N4          9.2267    4.6125   -1.5432 N.2       1 <0>        -0.5581
     30 N5         10.1355    6.3647   -2.7602 N.pl3     1 <0>        -0.8322
     31 O6          5.6272    5.4920   -2.8617 O.2       1 <0>        -0.5338
     32 N6          5.8411    3.3580   -1.1698 N.pl3     1 <0>        -0.7267
     33 H1         -0.9590    1.9215    0.0260 H         1 <0>         0.1327
     34 H2          1.1522    3.1764    0.0078 H         1 <0>         0.1193
     35 H3          3.3474   -0.4995   -0.0326 H         1 <0>         0.1220
     36 H4          1.2416   -1.7634   -0.0204 H         1 <0>         0.1279
     37 H5         -0.3974   -2.5806   -0.0078 H         1 <0>         0.3887
     38 H6         -3.2399   -2.3261    0.6112 H         1 <0>         0.0773
     39 H7         -3.1771   -4.8365    0.5367 H         1 <0>         0.0760
     40 H8         -1.4631   -4.7456    0.0656 H         1 <0>         0.0559
     41 H9         -0.9536   -3.5146    2.1570 H         1 <0>         0.0510
     42 H10        -2.6677   -3.6056    2.6281 H         1 <0>         0.0524
     43 H11         3.5606    3.0997   -0.0161 H         1 <0>         0.3980
     44 H12         4.9299    0.7860    0.8490 H         1 <0>         0.0776
     45 H13         4.9126    0.7950   -0.9309 H         1 <0>         0.0691
     46 H14         6.0116    2.9817    0.8954 H         1 <0>         0.0739
     47 H15         7.4703    0.9656    0.5664 H         1 <0>         0.0890
     48 H16         7.3461    1.1918   -1.1970 H         1 <0>         0.0772
     49 H17         8.5587    3.1108    0.8344 H         1 <0>         0.0822
     50 H18         9.4080    2.2348   -0.4579 H         1 <0>         0.0894
     51 H19        10.0171    7.1122   -3.3670 H         1 <0>         0.4095
     52 H20        11.0208    6.1418   -2.4322 H         1 <0>         0.4249
     53 H21         4.9898    3.4351   -1.6284 H         1 <0>         0.4088
     54 H22         7.7039    6.6981   -3.4393 H         1 <0>         0.4122
@<TRIPOS>BOND
     1    1    6 ar
     2    1    2 ar
     3    1   33 1
     4    2    3 ar
     5    2   34 1
     6    3    4 ar
     7    3   19 1
     8    4    5 ar
     9    4   35 1
    10    5    6 ar
    11    5   36 1
    12    6    7 1
    13    7    8 2
    14    7    9 am
    15    9   10 1
    16    9   37 1
    17   10   11 1
    18   10   16 1
    19   10   38 1
    20   11   12 1
    21   11   39 1
    22   11   40 1
    23   12   13 1
    24   12   41 1
    25   12   42 1
    26   13   14 2
    27   13   15 1
    28   16   17 2
    29   16   18 1
    30   19   20 1
    31   19   43 1
    32   20   21 1
    33   20   44 1
    34   20   45 1
    35   21   32 1
    36   21   22 1
    37   21   46 1
    38   22   23 1
    39   22   47 1
    40   22   48 1
    41   23   24 1
    42   23   49 1
    43   23   50 1
    44   24   29 1
    45   24   25 2
    46   25   26 1
    47   25   32 1
    48   26   27 am
    49   26   31 2
    50   27   28 1
    51   27   54 1
    52   28   29 2
    53   28   30 1
    54   30   51 1
    55   30   52 1
    56   32   53 1
@<TRIPOS>MOLECULE
CHEMBL36639__2
   54    56     0     0     0
SMALL
USER_CHARGES

@<TRIPOS>ATOM
      1 C1         -0.0169    1.3937    0.0097 C.ar      1 <0>        -0.0177
      2 C2          1.1662    2.0965    0.0022 C.ar      1 <0>        -0.2041
      3 C3          2.3811    1.4169   -0.0131 C.ar      1 <0>         0.2224
      4 C4          2.4034    0.0249   -0.0208 C.ar      1 <0>        -0.2020
      5 C5          1.2237   -0.6836   -0.0138 C.ar      1 <0>        -0.0366
      6 C6          0.0021   -0.0041    0.0020 C.ar      1 <0>        -0.1648
      7 C7         -1.2644   -0.7605    0.0105 C.2       1 <0>         0.5493
      8 O1         -2.3263   -0.1682    0.0243 O.2       1 <0>        -0.5601
      9 N1         -1.2445   -2.1081    0.0031 N.am      1 <0>        -0.6791
     10 C8         -2.5022   -2.8593    0.0116 C.3       1 <0>         0.0744
     11 C9         -2.2758   -4.2399   -0.6078 C.3       1 <0>        -0.0821
     12 C10        -1.9084   -4.0824   -2.0846 C.3       1 <0>        -0.1769
     13 C11        -1.6854   -5.4422   -2.6946 C.2       1 <0>         0.4912
     14 O2         -1.8089   -6.4445   -2.0115 O.co2     1 <0>        -0.6979
     15 O3         -1.3815   -5.5401   -3.8713 O.co2     1 <0>        -0.7202
     16 C12        -2.9829   -3.0182    1.4310 C.2       1 <0>         0.4982
     17 O4         -4.1770   -3.0939    1.6654 O.co2     1 <0>        -0.7027
     18 O5         -2.1777   -3.0709    2.3450 O.co2     1 <0>        -0.6991
     19 N2          3.5749    2.1299   -0.0211 N.pl3     1 <0>        -0.7486
     20 C13         4.8542    1.4162   -0.0371 C.3       1 <0>         0.1192
     21 C14         6.0023    2.4276   -0.0432 C.3       1 <0>         0.1497
     22 C15         7.3420    1.6951    0.1112 C.3       1 <0>        -0.1320
     23 C16         8.4748    2.7192    0.0480 C.3       1 <0>        -0.0541
     24 C17         8.2231    3.8472    1.0133 C.2       1 <0>         0.1102
     25 C18         6.9728    4.1195    1.4828 C.2       1 <0>         0.0150
     26 C19         6.7911    5.1947    2.3793 C.2       1 <0>         0.5345
     27 N3          7.8691    5.9195    2.7478 N.am      1 <0>        -0.6438
     28 C20         9.0957    5.5993    2.2517 C.2       1 <0>         0.5904
     29 N4          9.2555    4.5976    1.4156 N.2       1 <0>        -0.5581
     30 N5         10.1880    6.3376    2.6323 N.pl3     1 <0>        -0.8322
     31 O6          5.6823    5.4639    2.8121 O.2       1 <0>        -0.5338
     32 N6          5.8632    3.3466    1.0956 N.pl3     1 <0>        -0.7268
     33 H1         -0.9590    1.9215    0.0260 H         1 <0>         0.1329
     34 H2          1.1522    3.1764    0.0078 H         1 <0>         0.1196
     35 H3          3.3474   -0.4995   -0.0326 H         1 <0>         0.1223
     36 H4          1.2416   -1.7634   -0.0204 H         1 <0>         0.1286
     37 H5         -0.3974   -2.5806   -0.0078 H         1 <0>         0.3901
     38 H6         -3.2516   -2.3197   -0.5676 H         1 <0>         0.0769
     39 H7         -1.4645   -4.7448   -0.0833 H         1 <0>         0.0596
     40 H8         -3.1876   -4.8309   -0.5212 H         1 <0>         0.0716
     41 H9         -2.7197   -3.5775   -2.6090 H         1 <0>         0.0525
     42 H10        -0.9966   -3.4914   -2.1711 H         1 <0>         0.0516
     43 H11         3.5606    3.0997   -0.0161 H         1 <0>         0.3982
     44 H12         4.9299    0.7860    0.8490 H         1 <0>         0.0693
     45 H13         4.9126    0.7950   -0.9309 H         1 <0>         0.0777
     46 H14         5.9934    2.9911   -0.9762 H         1 <0>         0.0739
     47 H15         7.3682    1.1804    1.0717 H         1 <0>         0.0772
     48 H16         7.4580    0.9719   -0.6960 H         1 <0>         0.0891
     49 H17         9.4154    2.2310    0.3031 H         1 <0>         0.0895
     50 H18         8.5412    3.1198   -0.9635 H         1 <0>         0.0822
     51 H19        10.0815    7.0789    3.2487 H         1 <0>         0.4095
     52 H20        11.0667    6.1181    2.2849 H         1 <0>         0.4249
     53 H21         5.0210    3.4190    1.5714 H         1 <0>         0.4088
     54 H22         7.7701    6.6638    3.3619 H         1 <0>         0.4122
@<TRIPOS>BOND
     1    1    6 ar
     2    1    2 ar
     3    1   33 1
     4    2    3 ar
     5    2   34 1
     6    3    4 ar
     7    3   19 1
     8    4    5 ar
     9    4   35 1
    10    5    6 ar
    11    5   36 1
    12    6    7 1
    13    7    8 2
    14    7    9 am
    15    9   10 1
    16    9   37 1
    17   10   11 1
    18   10   16 1
    19   10   38 1
    20   11   12 1
    21   11   39 1
    22   11   40 1
    23   12   13 1
    24   12   41 1
    25   12   42 1
    26   13   14 2
    27   13   15 1
    28   16   17 2
    29   16   18 1
    30   19   20 1
    31   19   43 1
    32   20   21 1
    33   20   44 1
    34   20   45 1
    35   21   32 1
    36   21   22 1
    37   21   46 1
    38   22   23 1
    39   22   47 1
    40   22   48 1
    41   23   24 1
    42   23   49 1
    43   23   50 1
    44   24   29 1
    45   24   25 2
    46   25   26 1
    47   25   32 1
    48   26   27 am
    49   26   31 2
    50   27   28 1
    51   27   54 1
    52   28   29 2
    53   28   30 1
    54   30   51 1
    55   30   52 1
    56   32   53 1
@<TRIPOS>MOLECULE
CHEMBL36639__3
   54    56     0     0     0
SMALL
USER_CHARGES

@<TRIPOS>ATOM
      1 C1         -0.0169    1.3937    0.0097 C.ar      1 <0>        -0.0177
      2 C2          1.1662    2.0965    0.0022 C.ar      1 <0>        -0.2041
      3 C3          2.3811    1.4169   -0.0131 C.ar      1 <0>         0.2224
      4 C4          2.4034    0.0249   -0.0208 C.ar      1 <0>        -0.2020
      5 C5          1.2237   -0.6836   -0.0138 C.ar      1 <0>        -0.0366
      6 C6          0.0021   -0.0041    0.0020 C.ar      1 <0>        -0.1648
      7 C7         -1.2644   -0.7605    0.0105 C.2       1 <0>         0.5493
      8 O1         -2.3263   -0.1682    0.0243 O.2       1 <0>        -0.5601
      9 N1         -1.2445   -2.1081    0.0031 N.am      1 <0>        -0.6791
     10 C8         -2.5022   -2.8593    0.0116 C.3       1 <0>         0.0744
     11 C9         -2.2758   -4.2399   -0.6078 C.3       1 <0>        -0.0820
     12 C10        -1.9084   -4.0824   -2.0846 C.3       1 <0>        -0.1770
     13 C11        -1.6854   -5.4422   -2.6946 C.2       1 <0>         0.4912
     14 O2         -1.8089   -6.4445   -2.0115 O.co2     1 <0>        -0.6980
     15 O3         -1.3815   -5.5401   -3.8713 O.co2     1 <0>        -0.7201
     16 C12        -2.9829   -3.0182    1.4310 C.2       1 <0>         0.4984
     17 O4         -4.1770   -3.0939    1.6654 O.co2     1 <0>        -0.7026
     18 O5         -2.1777   -3.0709    2.3450 O.co2     1 <0>        -0.6992
     19 N2          3.5749    2.1299   -0.0211 N.pl3     1 <0>        -0.7486
     20 C13         4.8542    1.4162   -0.0371 C.3       1 <0>         0.1192
     21 C14         6.0023    2.4276   -0.0432 C.3       1 <0>         0.1498
     22 C15         7.3387    1.6968   -0.2311 C.3       1 <0>        -0.1320
     23 C16         8.4726    2.7204   -0.1797 C.3       1 <0>        -0.0541
     24 C17         8.2023    3.8580   -1.1284 C.2       1 <0>         0.1103
     25 C18         6.9430    4.1349   -1.5707 C.2       1 <0>         0.0150
     26 C19         6.7441    5.2190   -2.4526 C.2       1 <0>         0.5346
     27 N3          7.8147    5.9476   -2.8348 N.am      1 <0>        -0.6437
     28 C20         9.0507    5.6226   -2.3659 C.2       1 <0>         0.5904
     29 N4          9.2267    4.6125   -1.5432 N.2       1 <0>        -0.5581
     30 N5         10.1355    6.3647   -2.7602 N.pl3     1 <0>        -0.8322
     31 O6          5.6272    5.4920   -2.8617 O.2       1 <0>        -0.5340
     32 N6          5.8411    3.3580   -1.1698 N.pl3     1 <0>        -0.7268
     33 H1         -0.9590    1.9215    0.0260 H         1 <0>         0.1329
     34 H2          1.1522    3.1764    0.0078 H         1 <0>         0.1196
     35 H3          3.3474   -0.4995   -0.0326 H         1 <0>         0.1223
     36 H4          1.2416   -1.7634   -0.0204 H         1 <0>         0.1286
     37 H5         -0.3974   -2.5806   -0.0078 H         1 <0>         0.3901
     38 H6         -3.2516   -2.3197   -0.5676 H         1 <0>         0.0768
     39 H7         -1.4645   -4.7448   -0.0833 H         1 <0>         0.0596
     40 H8         -3.1876   -4.8309   -0.5212 H         1 <0>         0.0716
     41 H9         -2.7197   -3.5775   -2.6090 H         1 <0>         0.0525
     42 H10        -0.9966   -3.4914   -2.1711 H         1 <0>         0.0515
     43 H11         3.5606    3.0997   -0.0161 H         1 <0>         0.3982
     44 H12         4.9299    0.7860    0.8490 H         1 <0>         0.0775
     45 H13         4.9126    0.7950   -0.9309 H         1 <0>         0.0695
     46 H14         6.0116    2.9817    0.8954 H         1 <0>         0.0738
     47 H15         7.4703    0.9656    0.5664 H         1 <0>         0.0889
     48 H16         7.3461    1.1918   -1.1970 H         1 <0>         0.0774
     49 H17         8.5587    3.1108    0.8344 H         1 <0>         0.0821
     50 H18         9.4080    2.2348   -0.4579 H         1 <0>         0.0895
     51 H19        10.0171    7.1122   -3.3670 H         1 <0>         0.4095
     52 H20        11.0208    6.1418   -2.4322 H         1 <0>         0.4250
     53 H21         4.9898    3.4351   -1.6284 H         1 <0>         0.4087
     54 H22         7.7039    6.6981   -3.4393 H         1 <0>         0.4122
@<TRIPOS>BOND
     1    1    6 ar
     2    1    2 ar
     3    1   33 1
     4    2    3 ar
     5    2   34 1
     6    3    4 ar
     7    3   19 1
     8    4    5 ar
     9    4   35 1
    10    5    6 ar
    11    5   36 1
    12    6    7 1
    13    7    8 2
    14    7    9 am
    15    9   10 1
    16    9   37 1
    17   10   11 1
    18   10   16 1
    19   10   38 1
    20   11   12 1
    21   11   39 1
    22   11   40 1
    23   12   13 1
    24   12   41 1
    25   12   42 1
    26   13   14 2
    27   13   15 1
    28   16   17 2
    29   16   18 1
    30   19   20 1
    31   19   43 1
    32   20   21 1
    33   20   44 1
    34   20   45 1
    35   21   32 1
    36   21   22 1
    37   21   46 1
    38   22   23 1
    39   22   47 1
    40   22   48 1
    41   23   24 1
    42   23   49 1
    43   23   50 1
    44   24   29 1
    45   24   25 2
    46   25   26 1
    47   25   32 1
    48   26   27 am
    49   26   31 2
    50   27   28 1
    51   27   54 1
    52   28   29 2
    53   28   30 1
    54   30   51 1
    55   30   52 1
    56   32   53 1
@<TRIPOS>MOLECULE
CHEMBL575217
   56    58     0     0     0
SMALL
USER_CHARGES

@<TRIPOS>ATOM
      1 C1         -0.0184    1.5028    0.0103 C.3       1 <0>        -0.1180
      2 C2          0.0021   -0.0041    0.0020 C.ar      1 <0>        -0.0775
      3 C3          0.0058   -0.6878   -1.2004 C.ar      1 <0>        -0.1125
      4 C4          0.0249   -2.0708   -1.2153 C.ar      1 <0>        -0.0766
      5 C5          0.0401   -2.7762   -0.0291 C.ar      1 <0>        -0.1130
      6 C6          0.0364   -2.0925    1.1850 C.ar      1 <0>        -0.0508
      7 C7          0.0228   -0.6992    1.1942 C.ar      1 <0>        -0.1117
      8 C8          0.0522   -2.8455    2.4637 C.ar      1 <0>         0.0107
      9 C9          0.0427   -2.1612    3.6779 C.ar      1 <0>        -0.1377
     10 C10         0.0575   -2.8637    4.8659 C.ar      1 <0>        -0.0460
     11 C11         0.0820   -4.2459    4.8557 C.ar      1 <0>        -0.1514
     12 C12         0.0919   -4.9349    3.6509 C.ar      1 <0>         0.1369
     13 C13         0.0706   -4.2377    2.4538 C.ar      1 <0>        -0.1963
     14 O1          0.1165   -6.2937    3.6455 O.3       1 <0>        -0.3162
     15 C14         0.1255   -6.9373    2.3696 C.3       1 <0>         0.0236
     16 C15         0.0473   -2.1219    6.1777 C.3       1 <0>         0.0538
     17 C16         1.3045   -2.4769    6.9740 C.3       1 <0>        -0.1463
     18 C17        -1.1465   -2.5053    6.9488 C.1       1 <0>        -0.0532
     19 C18        -2.0986   -2.8110    7.5639 C.1       1 <0>        -0.1863
     20 C19        -3.2600   -3.1840    8.3141 C.ar      1 <0>        -0.1067
     21 C20        -4.1728   -4.1103    7.8083 C.ar      1 <0>         0.2531
     22 N1         -5.2333   -4.4294    8.5316 N.ar      1 <0>        -0.5687
     23 C21        -5.4390   -3.8841    9.7222 C.ar      1 <0>         0.6662
     24 N2         -4.6009   -3.0006   10.2436 N.ar      1 <0>        -0.5735
     25 C22        -3.5088   -2.6298    9.5857 C.ar      1 <0>         0.5414
     26 N3         -2.6337   -1.7113   10.1362 N.pl3     1 <0>        -0.7673
     27 N4         -6.5628   -4.2482   10.4415 N.pl3     1 <0>        -0.7892
     28 C23        -3.9536   -4.7383    6.4560 C.3       1 <0>        -0.1393
     29 C24         0.0289   -2.8088   -2.5293 C.3       1 <0>        -0.1189
     30 H1          1.0042    1.8801    0.0026 H         1 <0>         0.0742
     31 H2         -0.5455    1.8639   -0.8728 H         1 <0>         0.0696
     32 H3         -0.5286    1.8543    0.9071 H         1 <0>         0.0671
     33 H4         -0.0067   -0.1398   -2.1309 H         1 <0>         0.1258
     34 H5          0.0543   -3.8560   -0.0419 H         1 <0>         0.1220
     35 H6          0.0241   -0.1643    2.1324 H         1 <0>         0.1252
     36 H7          0.0243   -1.0814    3.6891 H         1 <0>         0.1316
     37 H8          0.0938   -4.7911    5.7879 H         1 <0>         0.1288
     38 H9          0.0735   -4.7725    1.5156 H         1 <0>         0.1348
     39 H10        -0.7708   -6.6583    1.8156 H         1 <0>         0.0575
     40 H11         1.0089   -6.6261    1.8120 H         1 <0>         0.0597
     41 H12         0.1454   -8.0182    2.5081 H         1 <0>         0.1054
     42 H13         0.0282   -1.0487    5.9881 H         1 <0>         0.1180
     43 H14         1.3236   -3.5501    7.1636 H         1 <0>         0.0663
     44 H15         2.1885   -2.1930    6.4030 H         1 <0>         0.0791
     45 H16         1.2972   -1.9404    7.9228 H         1 <0>         0.0688
     46 H17        -1.8405   -1.4432    9.6464 H         1 <0>         0.4337
     47 H18        -2.8131   -1.3351   11.0121 H         1 <0>         0.4297
     48 H19        -7.1863   -4.8936   10.0733 H         1 <0>         0.4310
     49 H20        -6.7275   -3.8581   11.3142 H         1 <0>         0.4458
     50 H21        -3.3708   -5.6523    6.5700 H         1 <0>         0.1208
     51 H22        -4.9172   -4.9758    6.0052 H         1 <0>         0.1036
     52 H23        -3.4144   -4.0412    5.8147 H         1 <0>         0.1177
     53 H24         1.0573   -2.9724   -2.8510 H         1 <0>         0.0744
     54 H25        -0.4711   -3.7697   -2.4078 H         1 <0>         0.0671
     55 H26        -0.4969   -2.2180   -3.2794 H         1 <0>         0.0702
     56 H27        -5.8712   -5.0728    8.1849 H         1 <0>         0.4437
@<TRIPOS>BOND
     1    1    2 1
     2    1   30 1
     3    1   31 1
     4    1   32 1
     5    2    7 ar
     6    2    3 ar
     7    3    4 ar
     8    3   33 1
     9    4    5 ar
    10    4   29 1
    11    5    6 ar
    12    5   34 1
    13    6    7 ar
    14    6    8 1
    15    7   35 1
    16    8   13 ar
    17    8    9 ar
    18    9   10 ar
    19    9   36 1
    20   10   11 ar
    21   10   16 1
    22   11   12 ar
    23   11   37 1
    24   12   13 ar
    25   12   14 1
    26   13   38 1
    27   14   15 1
    28   15   39 1
    29   15   40 1
    30   15   41 1
    31   16   17 1
    32   16   18 1
    33   16   42 1
    34   17   43 1
    35   17   44 1
    36   17   45 1
    37   18   19 3
    38   19   20 1
    39   20   25 ar
    40   20   21 ar
    41   21   22 ar
    42   21   28 1
    43   22   23 ar
    44   22   56 1
    45   23   24 ar
    46   23   27 1
    47   24   25 ar
    48   25   26 1
    49   26   46 1
    50   26   47 1
    51   27   48 1
    52   27   49 1
    53   28   50 1
    54   28   51 1
    55   28   52 1
    56   29   53 1
    57   29   54 1
    58   29   55 1
@<TRIPOS>MOLECULE
CHEMBL575217__1
   55    57     0     0     0
SMALL
USER_CHARGES

@<TRIPOS>ATOM
      1 C1         -0.0184    1.5028    0.0103 C.3       1 <0>        -0.1167
      2 C2          0.0021   -0.0041    0.0020 C.ar      1 <0>        -0.0786
      3 C3          0.0058   -0.6878   -1.2004 C.ar      1 <0>        -0.1175
      4 C4          0.0249   -2.0708   -1.2153 C.ar      1 <0>        -0.0796
      5 C5          0.0401   -2.7762   -0.0291 C.ar      1 <0>        -0.1151
      6 C6          0.0364   -2.0925    1.1850 C.ar      1 <0>        -0.0411
      7 C7          0.0228   -0.6992    1.1942 C.ar      1 <0>        -0.1126
      8 C8          0.0522   -2.8455    2.4637 C.ar      1 <0>        -0.0001
      9 C9          0.0427   -2.1612    3.6779 C.ar      1 <0>        -0.1381
     10 C10         0.0575   -2.8637    4.8659 C.ar      1 <0>        -0.0341
     11 C11         0.0820   -4.2459    4.8557 C.ar      1 <0>        -0.1417
     12 C12         0.0919   -4.9349    3.6509 C.ar      1 <0>         0.1331
     13 C13         0.0706   -4.2377    2.4538 C.ar      1 <0>        -0.1999
     14 O1          0.1165   -6.2937    3.6455 O.3       1 <0>        -0.3155
     15 C14         0.1255   -6.9373    2.3696 C.3       1 <0>         0.0255
     16 C15         0.0473   -2.1219    6.1777 C.3       1 <0>         0.0711
     17 C16         1.3045   -2.4769    6.9740 C.3       1 <0>        -0.1431
     18 C17        -1.1465   -2.5053    6.9488 C.1       1 <0>        -0.1720
     19 C18        -2.0986   -2.8110    7.5639 C.1       1 <0>        -0.1008
     20 C19        -3.2600   -3.1840    8.3141 C.ar      1 <0>        -0.2161
     21 C20        -4.1728   -4.1103    7.8083 C.ar      1 <0>         0.2719
     22 N1         -5.2333   -4.4294    8.5316 N.ar      1 <0>        -0.6043
     23 C21        -5.4388   -3.8844    9.7224 C.ar      1 <0>         0.6142
     24 N2         -4.6007   -3.0009   10.2438 N.ar      1 <0>        -0.6307
     25 C22        -3.5088   -2.6298    9.5857 C.ar      1 <0>         0.5041
     26 N3         -2.6337   -1.7113   10.1362 N.pl3     1 <0>        -0.8241
     27 N4         -6.5623   -4.2488   10.4419 N.pl3     1 <0>        -0.8160
     28 C23        -3.9536   -4.7383    6.4560 C.3       1 <0>        -0.1072
     29 C24         0.0289   -2.8088   -2.5293 C.3       1 <0>        -0.1164
     30 H1          1.0042    1.8801    0.0026 H         1 <0>         0.0724
     31 H2         -0.5455    1.8639   -0.8728 H         1 <0>         0.0677
     32 H3         -0.5286    1.8543    0.9071 H         1 <0>         0.0678
     33 H4         -0.0067   -0.1398   -2.1309 H         1 <0>         0.1231
     34 H5          0.0543   -3.8560   -0.0419 H         1 <0>         0.1215
     35 H6          0.0241   -0.1643    2.1324 H         1 <0>         0.1264
     36 H7          0.0243   -1.0814    3.6891 H         1 <0>         0.1294
     37 H8          0.0938   -4.7911    5.7879 H         1 <0>         0.1305
     38 H9          0.0735   -4.7725    1.5156 H         1 <0>         0.1313
     39 H10         0.1454   -8.0182    2.5081 H         1 <0>         0.1021
     40 H11        -0.7708   -6.6583    1.8156 H         1 <0>         0.0558
     41 H12         1.0089   -6.6261    1.8120 H         1 <0>         0.0564
     42 H13         0.0282   -1.0487    5.9881 H         1 <0>         0.1036
     43 H14         2.1885   -2.1930    6.4030 H         1 <0>         0.0685
     44 H15         1.2972   -1.9404    7.9228 H         1 <0>         0.0660
     45 H16         1.3236   -3.5501    7.1636 H         1 <0>         0.0626
     46 H17        -1.8405   -1.4432    9.6464 H         1 <0>         0.4150
     47 H18        -2.8131   -1.3351   11.0121 H         1 <0>         0.4087
     48 H19        -7.1858   -4.8943   10.0737 H         1 <0>         0.4167
     49 H20        -6.7268   -3.8590   11.3148 H         1 <0>         0.4148
     50 H21        -3.3708   -5.6523    6.5700 H         1 <0>         0.0880
     51 H22        -4.9172   -4.9758    6.0052 H         1 <0>         0.0848
     52 H23        -3.4144   -4.0412    5.8147 H         1 <0>         0.0817
     53 H24         1.0573   -2.9724   -2.8510 H         1 <0>         0.0720
     54 H25        -0.4711   -3.7697   -2.4078 H         1 <0>         0.0663
     55 H26        -0.4969   -2.2180   -3.2794 H         1 <0>         0.0681
@<TRIPOS>BOND
     1    1    2 1
     2    1   30 1
     3    1   31 1
     4    1   32 1
     5    2    7 ar
     6    2    3 ar
     7    3    4 ar
     8    3   33 1
     9    4    5 ar
    10    4   29 1
    11    5    6 ar
    12    5   34 1
    13    6    7 ar
    14    6    8 1
    15    7   35 1
    16    8   13 ar
    17    8    9 ar
    18    9   10 ar
    19    9   36 1
    20   10   11 ar
    21   10   16 1
    22   11   12 ar
    23   11   37 1
    24   12   13 ar
    25   12   14 1
    26   13   38 1
    27   14   15 1
    28   15   39 1
    29   15   40 1
    30   15   41 1
    31   16   17 1
    32   16   18 1
    33   16   42 1
    34   17   43 1
    35   17   44 1
    36   17   45 1
    37   18   19 3
    38   19   20 1
    39   20   25 ar
    40   20   21 ar
    41   21   22 ar
    42   21   28 1
    43   22   23 ar
    44   23   24 ar
    45   23   27 1
    46   24   25 ar
    47   25   26 1
    48   26   46 1
    49   26   47 1
    50   27   48 1
    51   27   49 1
    52   28   50 1
    53   28   51 1
    54   28   52 1
    55   29   53 1
    56   29   54 1
    57   29   55 1
@<TRIPOS>MOLECULE
CHEMBL575217__2
   56    58     0     0     0
SMALL
USER_CHARGES

@<TRIPOS>ATOM
      1 C1         -0.0184    1.5028    0.0103 C.3       1 <0>        -0.1182
      2 C2          0.0021   -0.0041    0.0020 C.ar      1 <0>        -0.0774
      3 C3          0.0058   -0.6878   -1.2004 C.ar      1 <0>        -0.1128
      4 C4          0.0249   -2.0708   -1.2153 C.ar      1 <0>        -0.0767
      5 C5          0.0401   -2.7762   -0.0291 C.ar      1 <0>        -0.1132
      6 C6          0.0364   -2.0925    1.1850 C.ar      1 <0>        -0.0501
      7 C7          0.0228   -0.6992    1.1942 C.ar      1 <0>        -0.1121
      8 C8          0.0522   -2.8455    2.4637 C.ar      1 <0>         0.0091
      9 C9          0.0427   -2.1612    3.6779 C.ar      1 <0>        -0.1376
     10 C10         0.0575   -2.8637    4.8659 C.ar      1 <0>        -0.0461
     11 C11         0.0820   -4.2459    4.8557 C.ar      1 <0>        -0.1462
     12 C12         0.0919   -4.9349    3.6509 C.ar      1 <0>         0.1365
     13 C13         0.0706   -4.2377    2.4538 C.ar      1 <0>        -0.1959
     14 O1          0.1165   -6.2937    3.6455 O.3       1 <0>        -0.3160
     15 C14         0.1255   -6.9373    2.3696 C.3       1 <0>         0.0239
     16 C15         0.0473   -2.1219    6.1777 C.3       1 <0>         0.0534
     17 C16        -1.1936   -2.5204    6.9792 C.3       1 <0>        -0.1467
     18 C17         1.2569   -2.4634    6.9438 C.1       1 <0>        -0.0534
     19 C18         2.2216   -2.7357    7.5549 C.1       1 <0>        -0.1859
     20 C19         3.3983   -3.0679    8.3003 C.ar      1 <0>        -0.1070
     21 C20         4.3465   -3.9530    7.7855 C.ar      1 <0>         0.2554
     22 N1          5.4207   -4.2345    8.5042 N.ar      1 <0>        -0.5683
     23 C21         5.6067   -3.6909    9.6988 C.ar      1 <0>         0.6661
     24 N2          4.7350   -2.8458   10.2287 N.ar      1 <0>        -0.5734
     25 C22         3.6330   -2.5053    9.5708 C.ar      1 <0>         0.5414
     26 N3          2.7283   -1.6185   10.1254 N.pl3     1 <0>        -0.7693
     27 N4          6.7451   -4.0162   10.4138 N.pl3     1 <0>        -0.7890
     28 C23         4.1490   -4.5800    6.4295 C.3       1 <0>        -0.1405
     29 C24         0.0289   -2.8088   -2.5293 C.3       1 <0>        -0.1188
     30 H1          1.0042    1.8801    0.0026 H         1 <0>         0.0728
     31 H2         -0.5455    1.8639   -0.8728 H         1 <0>         0.0701
     32 H3         -0.5286    1.8543    0.9071 H         1 <0>         0.0679
     33 H4         -0.0067   -0.1398   -2.1309 H         1 <0>         0.1257
     34 H5          0.0543   -3.8560   -0.0419 H         1 <0>         0.1220
     35 H6          0.0241   -0.1643    2.1324 H         1 <0>         0.1251
     36 H7          0.0243   -1.0814    3.6891 H         1 <0>         0.1310
     37 H8          0.0938   -4.7911    5.7879 H         1 <0>         0.1294
     38 H9          0.0735   -4.7725    1.5156 H         1 <0>         0.1345
     39 H10        -0.7708   -6.6583    1.8156 H         1 <0>         0.0592
     40 H11         1.0089   -6.6261    1.8120 H         1 <0>         0.0573
     41 H12         0.1454   -8.0182    2.5081 H         1 <0>         0.1049
     42 H13         0.0282   -1.0487    5.9881 H         1 <0>         0.1171
     43 H14        -1.1745   -3.5936    7.1688 H         1 <0>         0.0670
     44 H15        -1.2009   -1.9839    7.9280 H         1 <0>         0.0676
     45 H16        -2.0893   -2.2675    6.4119 H         1 <0>         0.0794
     46 H17         1.9239   -1.3788    9.6393 H         1 <0>         0.4330
     47 H18         2.8981   -1.2363   11.0006 H         1 <0>         0.4298
     48 H19         7.3929   -4.6337   10.0397 H         1 <0>         0.4310
     49 H20         6.8957   -3.6268   11.2894 H         1 <0>         0.4459
     50 H21         4.5988   -3.9447    5.6665 H         1 <0>         0.1205
     51 H22         4.6227   -5.5615    6.4105 H         1 <0>         0.1036
     52 H23         3.0827   -4.6873    6.2306 H         1 <0>         0.1186
     53 H24         1.0573   -2.9724   -2.8510 H         1 <0>         0.0733
     54 H25        -0.4711   -3.7697   -2.4078 H         1 <0>         0.0676
     55 H26        -0.4969   -2.2180   -3.2794 H         1 <0>         0.0705
     56 H27         6.0831   -4.8491    8.1514 H         1 <0>         0.4438
@<TRIPOS>BOND
     1    1    2 1
     2    1   30 1
     3    1   31 1
     4    1   32 1
     5    2    7 ar
     6    2    3 ar
     7    3    4 ar
     8    3   33 1
     9    4    5 ar
    10    4   29 1
    11    5    6 ar
    12    5   34 1
    13    6    7 ar
    14    6    8 1
    15    7   35 1
    16    8   13 ar
    17    8    9 ar
    18    9   10 ar
    19    9   36 1
    20   10   11 ar
    21   10   16 1
    22   11   12 ar
    23   11   37 1
    24   12   13 ar
    25   12   14 1
    26   13   38 1
    27   14   15 1
    28   15   39 1
    29   15   40 1
    30   15   41 1
    31   16   17 1
    32   16   18 1
    33   16   42 1
    34   17   43 1
    35   17   44 1
    36   17   45 1
    37   18   19 3
    38   19   20 1
    39   20   25 ar
    40   20   21 ar
    41   21   22 ar
    42   21   28 1
    43   22   23 ar
    44   22   56 1
    45   23   24 ar
    46   23   27 1
    47   24   25 ar
    48   25   26 1
    49   26   46 1
    50   26   47 1
    51   27   48 1
    52   27   49 1
    53   28   50 1
    54   28   51 1
    55   28   52 1
    56   29   53 1
    57   29   54 1
    58   29   55 1
@<TRIPOS>MOLECULE
CHEMBL575217__3
   55    57     0     0     0
SMALL
USER_CHARGES

@<TRIPOS>ATOM
      1 C1         -0.0184    1.5028    0.0103 C.3       1 <0>        -0.1165
      2 C2          0.0021   -0.0041    0.0020 C.ar      1 <0>        -0.0788
      3 C3          0.0058   -0.6878   -1.2004 C.ar      1 <0>        -0.1181
      4 C4          0.0249   -2.0708   -1.2153 C.ar      1 <0>        -0.0794
      5 C5          0.0401   -2.7762   -0.0291 C.ar      1 <0>        -0.1152
      6 C6          0.0364   -2.0925    1.1850 C.ar      1 <0>        -0.0399
      7 C7          0.0228   -0.6992    1.1942 C.ar      1 <0>        -0.1130
      8 C8          0.0522   -2.8455    2.4637 C.ar      1 <0>        -0.0018
      9 C9          0.0427   -2.1612    3.6779 C.ar      1 <0>        -0.1382
     10 C10         0.0575   -2.8637    4.8659 C.ar      1 <0>        -0.0354
     11 C11         0.0820   -4.2459    4.8557 C.ar      1 <0>        -0.1368
     12 C12         0.0919   -4.9349    3.6509 C.ar      1 <0>         0.1336
     13 C13         0.0706   -4.2377    2.4538 C.ar      1 <0>        -0.1991
     14 O1          0.1165   -6.2937    3.6455 O.3       1 <0>        -0.3149
     15 C14         0.1255   -6.9373    2.3696 C.3       1 <0>         0.0257
     16 C15         0.0473   -2.1219    6.1777 C.3       1 <0>         0.0713
     17 C16        -1.1936   -2.5204    6.9792 C.3       1 <0>        -0.1431
     18 C17         1.2569   -2.4634    6.9438 C.1       1 <0>        -0.1719
     19 C18         2.2216   -2.7357    7.5549 C.1       1 <0>        -0.1008
     20 C19         3.3983   -3.0679    8.3003 C.ar      1 <0>        -0.2155
     21 C20         4.3465   -3.9530    7.7855 C.ar      1 <0>         0.2738
     22 N1          5.4207   -4.2345    8.5042 N.ar      1 <0>        -0.6036
     23 C21         5.6069   -3.6905    9.6986 C.ar      1 <0>         0.6140
     24 N2          4.7352   -2.8454   10.2285 N.ar      1 <0>        -0.6307
     25 C22         3.6330   -2.5053    9.5708 C.ar      1 <0>         0.5030
     26 N3          2.7283   -1.6185   10.1254 N.pl3     1 <0>        -0.8256
     27 N4          6.7455   -4.0155   10.4134 N.pl3     1 <0>        -0.8160
     28 C23         4.1490   -4.5800    6.4295 C.3       1 <0>        -0.1073
     29 C24         0.0289   -2.8088   -2.5293 C.3       1 <0>        -0.1163
     30 H1          1.0042    1.8801    0.0026 H         1 <0>         0.0720
     31 H2         -0.5455    1.8639   -0.8728 H         1 <0>         0.0677
     32 H3         -0.5286    1.8543    0.9071 H         1 <0>         0.0676
     33 H4         -0.0067   -0.1398   -2.1309 H         1 <0>         0.1228
     34 H5          0.0543   -3.8560   -0.0419 H         1 <0>         0.1218
     35 H6          0.0241   -0.1643    2.1324 H         1 <0>         0.1260
     36 H7          0.0243   -1.0814    3.6891 H         1 <0>         0.1285
     37 H8          0.0938   -4.7911    5.7879 H         1 <0>         0.1310
     38 H9          0.0735   -4.7725    1.5156 H         1 <0>         0.1312
     39 H10         0.1454   -8.0182    2.5081 H         1 <0>         0.1020
     40 H11        -0.7708   -6.6583    1.8156 H         1 <0>         0.0558
     41 H12         1.0089   -6.6261    1.8120 H         1 <0>         0.0560
     42 H13         0.0282   -1.0487    5.9881 H         1 <0>         0.1021
     43 H14        -1.2009   -1.9839    7.9280 H         1 <0>         0.0642
     44 H15        -2.0893   -2.2675    6.4119 H         1 <0>         0.0689
     45 H16        -1.1745   -3.5936    7.1688 H         1 <0>         0.0636
     46 H17         1.9239   -1.3788    9.6393 H         1 <0>         0.4144
     47 H18         2.8981   -1.2363   11.0006 H         1 <0>         0.4090
     48 H19         7.3933   -4.6330   10.0393 H         1 <0>         0.4168
     49 H20         6.8963   -3.6259   11.2889 H         1 <0>         0.4148
     50 H21         4.5988   -3.9447    5.6665 H         1 <0>         0.0872
     51 H22         4.6227   -5.5615    6.4105 H         1 <0>         0.0844
     52 H23         3.0827   -4.6873    6.2306 H         1 <0>         0.0824
     53 H24         1.0573   -2.9724   -2.8510 H         1 <0>         0.0719
     54 H25        -0.4711   -3.7697   -2.4078 H         1 <0>         0.0665
     55 H26        -0.4969   -2.2180   -3.2794 H         1 <0>         0.0680
@<TRIPOS>BOND
     1    1    2 1
     2    1   30 1
     3    1   31 1
     4    1   32 1
     5    2    7 ar
     6    2    3 ar
     7    3    4 ar
     8    3   33 1
     9    4    5 ar
    10    4   29 1
    11    5    6 ar
    12    5   34 1
    13    6    7 ar
    14    6    8 1
    15    7   35 1
    16    8   13 ar
    17    8    9 ar
    18    9   10 ar
    19    9   36 1
    20   10   11 ar
    21   10   16 1
    22   11   12 ar
    23   11   37 1
    24   12   13 ar
    25   12   14 1
    26   13   38 1
    27   14   15 1
    28   15   39 1
    29   15   40 1
    30   15   41 1
    31   16   17 1
    32   16   18 1
    33   16   42 1
    34   17   43 1
    35   17   44 1
    36   17   45 1
    37   18   19 3
    38   19   20 1
    39   20   25 ar
    40   20   21 ar
    41   21   22 ar
    42   21   28 1
    43   22   23 ar
    44   23   24 ar
    45   23   27 1
    46   24   25 ar
    47   25   26 1
    48   26   46 1
    49   26   47 1
    50   27   48 1
    51   27   49 1
    52   28   50 1
    53   28   51 1
    54   28   52 1
    55   29   53 1
    56   29   54 1
    57   29   55 1
@<TRIPOS>MOLECULE
CHEMBL21031
   46    48     0     0     0
SMALL
USER_CHARGES

@<TRIPOS>ATOM
      1 C1          2.5364   -0.7491   -0.3546 C.3       1 <0>        -0.1719
      2 C2          1.1956   -1.3049    0.1296 C.3       1 <0>         0.4025
      3 N1          0.1949   -1.1814   -0.9367 N.pl3     1 <0>        -0.6961
      4 C3         -1.0585   -0.9582   -0.6434 C.cat     1 <0>         0.7285
      5 N2         -1.4745   -0.7896    0.6233 N.2       1 <0>        -0.6371
      6 C4         -0.6096   -0.5909    1.6008 C.2       1 <0>         0.7311
      7 N3          0.7297   -0.5331    1.2921 N.pl3     1 <0>        -0.5930
      8 C5          1.6166    0.2329    2.0558 C.ar      1 <0>         0.0912
      9 C6          1.7473    1.5943    1.8133 C.ar      1 <0>        -0.0945
     10 C7          2.6238    2.3477    2.5690 C.ar      1 <0>        -0.0985
     11 C8          3.3714    1.7479    3.5662 C.ar      1 <0>        -0.0706
     12 C9          3.2435    0.3930    3.8101 C.ar      1 <0>        -0.0557
     13 C10         2.3640   -0.3650    3.0619 C.ar      1 <0>        -0.0908
     14 C11         4.0601   -0.2563    4.8977 C.3       1 <0>        -0.0775
     15 S1          3.1416   -0.1964    6.4608 S.3       1 <0>        -0.1058
     16 C12         4.2144   -0.9836    7.6159 C.ar      1 <0>        -0.0912
     17 C13         5.4509   -1.4646    7.2023 C.ar      1 <0>        -0.1336
     18 C14         6.2889   -2.0810    8.1103 C.ar      1 <0>        -0.0994
     19 C15         5.8990   -2.2200    9.4300 C.ar      1 <0>        -0.1174
     20 C16         4.6690   -1.7429    9.8451 C.ar      1 <0>        -0.0981
     21 C17         3.8284   -1.1199    8.9440 C.ar      1 <0>        -0.0976
     22 N4         -1.0357   -0.4452    2.8917 N.pl3     1 <0>        -0.7686
     23 N5         -1.9836   -0.8930   -1.6657 N.pl3     1 <0>        -0.7921
     24 C18         1.3574   -2.7758    0.5184 C.3       1 <0>        -0.1812
     25 H1          3.2919   -0.8998    0.4164 H         1 <0>         0.1008
     26 H2          2.8374   -1.2679   -1.2647 H         1 <0>         0.0984
     27 H3          2.4349    0.3165   -0.5605 H         1 <0>         0.0832
     28 H4          1.1644    2.0631    1.0343 H         1 <0>         0.1292
     29 H5          2.7259    3.4062    2.3810 H         1 <0>         0.1430
     30 H6          4.0567    2.3392    4.1554 H         1 <0>         0.1414
     31 H7          2.2614   -1.4225    3.2558 H         1 <0>         0.1369
     32 H8          4.2583   -1.2947    4.6323 H         1 <0>         0.1016
     33 H9          5.0042    0.2765    5.0104 H         1 <0>         0.1056
     34 H10         5.7558   -1.3567    6.1719 H         1 <0>         0.1209
     35 H11         7.2498   -2.4553    7.7895 H         1 <0>         0.1285
     36 H12         6.5565   -2.7025   10.1379 H         1 <0>         0.1293
     37 H13         4.3677   -1.8535   10.8763 H         1 <0>         0.1320
     38 H14         2.8702   -0.7430    9.2700 H         1 <0>         0.1285
     39 H15        -1.9762   -0.5470    3.1064 H         1 <0>         0.4409
     40 H16        -0.3976   -0.2400    3.5928 H         1 <0>         0.4309
     41 H17        -1.6992   -1.0123   -2.5854 H         1 <0>         0.4288
     42 H18        -2.9180   -0.7280   -1.4645 H         1 <0>         0.4409
     43 H19         2.0939   -2.8615    1.3174 H         1 <0>         0.0960
     44 H20         0.4005   -3.1680    0.8627 H         1 <0>         0.0722
     45 H21         1.6932   -3.3458   -0.3479 H         1 <0>         0.0970
     46 H22         0.4656   -1.2657   -1.8643 H         1 <0>         0.4315
@<TRIPOS>BOND
     1    1    2 1
     2    1   25 1
     3    1   26 1
     4    1   27 1
     5    2    7 1
     6    2    3 1
     7    2   24 1
     8    3    4 2
     9    3   46 1
    10    4    5 1
    11    4   23 1
    12    5    6 2
    13    6    7 1
    14    6   22 1
    15    7    8 1
    16    8   13 ar
    17    8    9 ar
    18    9   10 ar
    19    9   28 1
    20   10   11 ar
    21   10   29 1
    22   11   12 ar
    23   11   30 1
    24   12   13 ar
    25   12   14 1
    26   13   31 1
    27   14   15 1
    28   14   32 1
    29   14   33 1
    30   15   16 1
    31   16   21 ar
    32   16   17 ar
    33   17   18 ar
    34   17   34 1
    35   18   19 ar
    36   18   35 1
    37   19   20 ar
    38   19   36 1
    39   20   21 ar
    40   20   37 1
    41   21   38 1
    42   22   39 1
    43   22   40 1
    44   23   41 1
    45   23   42 1
    46   24   43 1
    47   24   44 1
    48   24   45 1
@<TRIPOS>MOLECULE
CHEMBL6666
   56    58     0     0     0
SMALL
USER_CHARGES

@<TRIPOS>ATOM
      1 C1          2.5348   -1.6976    0.6826 C.3       1 <0>        -0.1739
      2 C2          1.1426   -2.0671    1.1985 C.3       1 <0>         0.4007
      3 N1          0.1775   -2.0215    0.0939 N.pl3     1 <0>        -0.6948
      4 C3         -1.0582   -1.6575    0.3114 C.cat     1 <0>         0.7283
      5 N2         -1.4840   -1.2727    1.5264 N.2       1 <0>        -0.6365
      6 C4         -0.6252   -1.0032    2.4925 C.2       1 <0>         0.7295
      7 N3          0.7197   -1.0985    2.2217 N.pl3     1 <0>        -0.5860
      8 C5          1.6537   -0.3018    2.8965 C.ar      1 <0>         0.0601
      9 C6          1.6886    1.0682    2.6726 C.ar      1 <0>        -0.0575
     10 C7          2.6091    1.8535    3.3383 C.ar      1 <0>        -0.1851
     11 C8          3.4990    1.2745    4.2307 C.ar      1 <0>         0.1730
     12 C9          3.4655   -0.0949    4.4550 C.ar      1 <0>        -0.0621
     13 C10         2.5409   -0.8809    3.7937 C.ar      1 <0>        -0.0606
     14 Cl1         4.5804   -0.8192    5.5713 Cl        1 <0>        -0.0223
     15 O1          4.4052    2.0486    4.8858 O.3       1 <0>        -0.2853
     16 C11         4.3837    3.4499    4.6064 C.3       1 <0>         0.1004
     17 C12         5.4495    4.1403    5.4179 C.ar      1 <0>        -0.1123
     18 C13         5.1537    4.6171    6.6828 C.ar      1 <0>        -0.0682
     19 C14         6.1265    5.2516    7.4344 C.ar      1 <0>        -0.1255
     20 C15         7.3990    5.4134    6.9263 C.ar      1 <0>        -0.0773
     21 C16         7.7039    4.9349    5.6513 C.ar      1 <0>        -0.1303
     22 C17         6.7193    4.2905    4.9004 C.ar      1 <0>        -0.0378
     23 C18         9.0653    5.1052    5.1003 C.2       1 <0>         0.5558
     24 O2          9.5751    4.2115    4.4530 O.2       1 <0>        -0.5280
     25 N4          9.7410    6.2512    5.3158 N.am      1 <0>        -0.6155
     26 C19        11.0470    6.4610    4.6861 C.3       1 <0>         0.0872
     27 C20         9.1694    7.2872    6.1796 C.3       1 <0>         0.0677
     28 N5         -1.0635   -0.6367    3.7346 N.pl3     1 <0>        -0.7692
     29 N6         -1.9537   -1.6681   -0.7391 N.pl3     1 <0>        -0.7921
     30 C21         1.1723   -3.4734    1.8007 C.3       1 <0>        -0.1825
     31 H1          3.2489   -1.7353    1.5052 H         1 <0>         0.1014
     32 H2          2.8347   -2.4039   -0.0915 H         1 <0>         0.1000
     33 H3          2.5126   -0.6904    0.2666 H         1 <0>         0.0834
     34 H4          0.9961    1.5196    1.9776 H         1 <0>         0.1361
     35 H5          2.6362    2.9190    3.1637 H         1 <0>         0.1526
     36 H6          2.5116   -1.9458    3.9713 H         1 <0>         0.1506
     37 H7          4.5731    3.6117    3.5452 H         1 <0>         0.0809
     38 H8          3.4071    3.8575    4.8675 H         1 <0>         0.0823
     39 H9          4.1590    4.4936    7.0849 H         1 <0>         0.1307
     40 H10         5.8892    5.6215    8.4210 H         1 <0>         0.1371
     41 H11         8.1573    5.9096    7.5138 H         1 <0>         0.1405
     42 H12         6.9500    3.9140    3.9148 H         1 <0>         0.1334
     43 H13        10.9388    6.4189    3.6023 H         1 <0>         0.0637
     44 H14        11.4369    7.4371    4.9746 H         1 <0>         0.0802
     45 H15        11.7371    5.6831    5.0128 H         1 <0>         0.0657
     46 H16         9.4432    7.0881    7.2157 H         1 <0>         0.0633
     47 H17         9.5561    8.2621    5.8825 H         1 <0>         0.0782
     48 H18         8.0837    7.2823    6.0833 H         1 <0>         0.0787
     49 H19        -2.0130   -0.6359    3.9332 H         1 <0>         0.4409
     50 H20        -0.4251   -0.3774    4.4173 H         1 <0>         0.4306
     51 H21        -1.6619   -1.9430   -1.6224 H         1 <0>         0.4290
     52 H22        -2.8747   -1.4006   -0.5940 H         1 <0>         0.4408
     53 H23         1.8827   -3.4998    2.6270 H         1 <0>         0.0966
     54 H24         0.1791   -3.7328    2.1670 H         1 <0>         0.0729
     55 H25         1.4765   -4.1892    1.0371 H         1 <0>         0.0981
     56 H26         0.4587   -2.2626   -0.8026 H         1 <0>         0.4320
@<TRIPOS>BOND
     1    1    2 1
     2    1   31 1
     3    1   32 1
     4    1   33 1
     5    2    7 1
     6    2    3 1
     7    2   30 1
     8    3    4 2
     9    3   56 1
    10    4    5 1
    11    4   29 1
    12    5    6 2
    13    6    7 1
    14    6   28 1
    15    7    8 1
    16    8   13 ar
    17    8    9 ar
    18    9   10 ar
    19    9   34 1
    20   10   11 ar
    21   10   35 1
    22   11   12 ar
    23   11   15 1
    24   12   13 ar
    25   12   14 1
    26   13   36 1
    27   15   16 1
    28   16   17 1
    29   16   37 1
    30   16   38 1
    31   17   22 ar
    32   17   18 ar
    33   18   19 ar
    34   18   39 1
    35   19   20 ar
    36   19   40 1
    37   20   21 ar
    38   20   41 1
    39   21   22 ar
    40   21   23 1
    41   22   42 1
    42   23   24 2
    43   23   25 am
    44   25   26 1
    45   25   27 1
    46   26   43 1
    47   26   44 1
    48   26   45 1
    49   27   46 1
    50   27   47 1
    51   27   48 1
    52   28   49 1
    53   28   50 1
    54   29   51 1
    55   29   52 1
    56   30   53 1
    57   30   54 1
    58   30   55 1
@<TRIPOS>MOLECULE
CHEMBL105526
   57    60     0     0     0
SMALL
USER_CHARGES

@<TRIPOS>ATOM
      1 C1          1.0364   -1.5944   -0.4442 C.3       1 <0>        -0.1546
      2 C2          0.1682   -0.4007   -0.0414 C.3       1 <0>        -0.1030
      3 C3         -1.2862   -0.7868   -0.1238 C.ar      1 <0>         0.2529
      4 C4         -1.9466   -0.7916   -1.3503 C.ar      1 <0>        -0.1809
      5 C5         -3.3045   -1.1597   -1.3742 C.ar      1 <0>         0.5392
      6 N1         -3.9007   -1.4863   -0.2333 N.ar      1 <0>        -0.5736
      7 C6         -3.2318   -1.4672    0.9099 C.ar      1 <0>         0.6666
      8 N2         -1.9513   -1.1309    0.9674 N.ar      1 <0>        -0.5688
      9 N3         -3.8882   -1.8137    2.0778 N.pl3     1 <0>        -0.7903
     10 N4         -4.0070   -1.1805   -2.5663 N.pl3     1 <0>        -0.7715
     11 C7         -1.2373   -0.4183   -2.5980 C.ar      1 <0>        -0.1308
     12 C8         -0.8168    0.8965   -2.7954 C.ar      1 <0>        -0.0024
     13 C9         -0.1577    1.2413   -3.9562 C.ar      1 <0>        -0.1873
     14 C10         0.0874    0.2795   -4.9295 C.ar      1 <0>         0.2996
     15 C11        -0.3311   -1.0313   -4.7351 C.ar      1 <0>        -0.1223
     16 C12        -0.9849   -1.3823   -3.5727 C.ar      1 <0>         0.0068
     17 N5         -0.0694   -2.0529   -5.7739 N.pl3     1 <0>         0.0384
     18 O1         -0.8897   -2.9128   -5.9962 O.2       1 <0>        -0.1388
     19 O2          0.9646   -2.0274   -6.3999 O.3       1 <0>        -0.1683
     20 N6          0.7551    0.6314   -6.1049 N.pl3     1 <0>        -0.7077
     21 C13         1.1170    2.0294   -6.3514 C.3       1 <0>         0.1551
     22 C14         1.8226    2.1392   -7.6785 C.ar      1 <0>        -0.1176
     23 C15         3.1971    2.0077   -7.7434 C.ar      1 <0>        -0.0966
     24 C16         3.8444    2.1084   -8.9607 C.ar      1 <0>        -0.0917
     25 C17         3.1170    2.3401  -10.1131 C.ar      1 <0>        -0.0939
     26 C18         1.7424    2.4707  -10.0483 C.ar      1 <0>        -0.0890
     27 C19         1.0947    2.3657   -8.8316 C.ar      1 <0>        -0.1013
     28 C20         3.8227    2.4509  -11.4401 C.3       1 <0>         0.2718
     29 O3          4.7494    3.5493  -11.4041 O.3       1 <0>        -0.3707
     30 C21         4.7048    4.1151  -12.7360 C.3       1 <0>         0.0157
     31 C22         3.2091    3.9437  -13.1009 C.3       1 <0>         0.0196
     32 O4          2.8628    2.6903  -12.4776 O.3       1 <0>        -0.3782
     33 H1          2.0829   -1.2906   -0.4691 H         1 <0>         0.0887
     34 H2          0.9085   -2.3979    0.2813 H         1 <0>         0.0659
     35 H3          0.7362   -1.9452   -1.4316 H         1 <0>         0.0682
     36 H4          0.4083   -0.1050    0.9799 H         1 <0>         0.1046
     37 H5          0.3615    0.4333   -0.7161 H         1 <0>         0.1210
     38 H6         -4.8246   -2.0657    2.0515 H         1 <0>         0.4458
     39 H7         -3.4120   -1.8046    2.9229 H         1 <0>         0.4307
     40 H8         -3.5636   -0.9401   -3.3948 H         1 <0>         0.4316
     41 H9         -4.9429   -1.4355   -2.5733 H         1 <0>         0.4298
     42 H10        -1.0077    1.6442   -2.0398 H         1 <0>         0.1459
     43 H11         0.1682    2.2595   -4.1095 H         1 <0>         0.1554
     44 H12        -1.3054   -2.4023   -3.4198 H         1 <0>         0.1491
     45 H13         0.9791   -0.0500   -6.7580 H         1 <0>         0.4202
     46 H14         0.2147    2.6408   -6.3679 H         1 <0>         0.0837
     47 H15         1.7781    2.3788   -5.5584 H         1 <0>         0.0858
     48 H16         3.7654    1.8267   -6.8430 H         1 <0>         0.1284
     49 H17         4.9183    2.0064   -9.0113 H         1 <0>         0.1319
     50 H18         1.1741    2.6520  -10.9487 H         1 <0>         0.1369
     51 H19         0.0203    2.4640   -8.7815 H         1 <0>         0.1256
     52 H20         4.3619    1.5263  -11.6463 H         1 <0>         0.1011
     53 H21         4.9849    5.1684  -12.7222 H         1 <0>         0.1139
     54 H22         5.3403    3.5528  -13.4203 H         1 <0>         0.0822
     55 H23         2.6154    4.7577  -12.6850 H         1 <0>         0.0786
     56 H24         3.0805    3.8849  -14.1817 H         1 <0>         0.1067
     57 H25        -1.4952   -1.1332    1.8235 H         1 <0>         0.4420
@<TRIPOS>BOND
     1    1    2 1
     2    1   33 1
     3    1   34 1
     4    1   35 1
     5    2    3 1
     6    2   36 1
     7    2   37 1
     8    3    8 ar
     9    3    4 ar
    10    4    5 ar
    11    4   11 1
    12    5    6 ar
    13    5   10 1
    14    6    7 ar
    15    7    8 ar
    16    7    9 1
    17    8   57 1
    18    9   38 1
    19    9   39 1
    20   10   40 1
    21   10   41 1
    22   11   16 ar
    23   11   12 ar
    24   12   13 ar
    25   12   42 1
    26   13   14 ar
    27   13   43 1
    28   14   15 ar
    29   14   20 1
    30   15   16 ar
    31   15   17 1
    32   16   44 1
    33   17   18 2
    34   17   19 1
    35   20   21 1
    36   20   45 1
    37   21   22 1
    38   21   46 1
    39   21   47 1
    40   22   27 ar
    41   22   23 ar
    42   23   24 ar
    43   23   48 1
    44   24   25 ar
    45   24   49 1
    46   25   26 ar
    47   25   28 1
    48   26   27 ar
    49   26   50 1
    50   27   51 1
    51   28   32 1
    52   28   29 1
    53   28   52 1
    54   29   30 1
    55   30   31 1
    56   30   53 1
    57   30   54 1
    58   31   32 1
    59   31   55 1
    60   31   56 1
@<TRIPOS>MOLECULE
CHEMBL105526__1
   56    59     0     0     0
SMALL
USER_CHARGES

@<TRIPOS>ATOM
      1 C1         -0.2579    1.0257    0.5236 C.3       1 <0>        -0.1421
      2 C2         -0.1883   -0.4704    0.2107 C.3       1 <0>        -0.0793
      3 C3          0.6156   -0.6839   -1.0460 C.ar      1 <0>         0.2682
      4 C4         -0.0090   -0.6875   -2.2912 C.ar      1 <0>        -0.2801
      5 C5          0.7858   -0.8910   -3.4344 C.ar      1 <0>         0.4980
      6 N1          2.0928   -1.0708   -3.2832 N.ar      1 <0>        -0.6295
      7 C6          2.6431   -1.0594   -2.0783 C.ar      1 <0>         0.6119
      8 N2          1.9250   -0.8650   -0.9815 N.ar      1 <0>        -0.6022
      9 N3          4.0086   -1.2508   -1.9617 N.pl3     1 <0>        -0.8183
     10 N4          0.2149   -0.9041   -4.6950 N.pl3     1 <0>        -0.8298
     11 C7         -1.4730   -0.4827   -2.4087 C.ar      1 <0>        -0.0645
     12 C8         -2.3546   -1.4191   -1.8699 C.ar      1 <0>        -0.0129
     13 C9         -3.7152   -1.2266   -1.9805 C.ar      1 <0>        -0.1912
     14 C10        -4.2085   -0.1003   -2.6289 C.ar      1 <0>         0.2793
     15 C11        -3.3319    0.8341   -3.1671 C.ar      1 <0>        -0.1182
     16 C12        -1.9700    0.6491   -3.0531 C.ar      1 <0>        -0.0142
     17 N5         -3.8603    2.0319   -3.8579 N.pl3     1 <0>         0.0429
     18 O1         -3.2976    2.4621   -4.8377 O.2       1 <0>        -0.1519
     19 O2         -4.8546    2.5800   -3.4423 O.3       1 <0>        -0.1768
     20 N6         -5.5876    0.0924   -2.7401 N.pl3     1 <0>        -0.7227
     21 C13        -6.5117   -0.8212   -2.0637 C.3       1 <0>         0.1604
     22 C14        -7.9308   -0.3967   -2.3411 C.ar      1 <0>        -0.1076
     23 C15        -8.5603    0.5019   -1.5002 C.ar      1 <0>        -0.0965
     24 C16        -9.8620    0.8914   -1.7547 C.ar      1 <0>        -0.0925
     25 C17       -10.5341    0.3826   -2.8503 C.ar      1 <0>        -0.1012
     26 C18        -9.9042   -0.5154   -3.6917 C.ar      1 <0>        -0.0905
     27 C19        -8.6011   -0.9015   -3.4396 C.ar      1 <0>        -0.1030
     28 C20       -11.9535    0.8064   -3.1271 C.3       1 <0>         0.2740
     29 O3        -12.7926    0.4367   -2.0200 O.3       1 <0>        -0.3704
     30 C21       -14.0547    0.0606   -2.6214 C.3       1 <0>         0.0156
     31 C22       -13.5880   -0.6243   -3.9302 C.3       1 <0>         0.0197
     32 O4        -12.4309    0.1486   -4.3082 O.3       1 <0>        -0.3781
     33 H1          0.7504    1.4142    0.6669 H         1 <0>         0.0607
     34 H2         -0.7343    1.5485   -0.3057 H         1 <0>         0.0539
     35 H3         -0.8393    1.1801    1.4325 H         1 <0>         0.0659
     36 H4          0.2881   -0.9933    1.0400 H         1 <0>         0.0886
     37 H5         -1.1966   -0.8589    0.0674 H         1 <0>         0.0849
     38 H6          4.5482   -1.3907   -2.7556 H         1 <0>         0.4144
     39 H7          4.4262   -1.2451   -1.0863 H         1 <0>         0.4161
     40 H8         -0.7408   -0.7723   -4.7960 H         1 <0>         0.4119
     41 H9          0.7704   -1.0452   -5.4775 H         1 <0>         0.4090
     42 H10        -1.9718   -2.2946   -1.3666 H         1 <0>         0.1416
     43 H11        -4.3984   -1.9516   -1.5633 H         1 <0>         0.1467
     44 H12        -1.2891    1.3781   -3.4670 H         1 <0>         0.1433
     45 H13        -5.9333    0.8310   -3.2652 H         1 <0>         0.4132
     46 H14        -6.3567   -1.8347   -2.4338 H         1 <0>         0.0777
     47 H15        -6.3278   -0.7946   -0.9896 H         1 <0>         0.0807
     48 H16        -8.0353    0.8995   -0.6442 H         1 <0>         0.1291
     49 H17       -10.3541    1.5929   -1.0973 H         1 <0>         0.1297
     50 H18       -10.4294   -0.9131   -4.5475 H         1 <0>         0.1344
     51 H19        -8.1077   -1.6002   -4.0991 H         1 <0>         0.1257
     52 H20       -11.9922    1.8865   -3.2684 H         1 <0>         0.0999
     53 H21       -14.5964   -0.6402   -1.9860 H         1 <0>         0.1124
     54 H22       -14.6620    0.9399   -2.8362 H         1 <0>         0.0805
     55 H23       -13.3138   -1.6628   -3.7449 H         1 <0>         0.0781
     56 H24       -14.3612   -0.5597   -4.6957 H         1 <0>         0.1048
@<TRIPOS>BOND
     1    1    2 1
     2    1   33 1
     3    1   34 1
     4    1   35 1
     5    2    3 1
     6    2   36 1
     7    2   37 1
     8    3    8 ar
     9    3    4 ar
    10    4    5 ar
    11    4   11 1
    12    5    6 ar
    13    5   10 1
    14    6    7 ar
    15    7    8 ar
    16    7    9 1
    17    9   38 1
    18    9   39 1
    19   10   40 1
    20   10   41 1
    21   11   16 ar
    22   11   12 ar
    23   12   13 ar
    24   12   42 1
    25   13   14 ar
    26   13   43 1
    27   14   15 ar
    28   14   20 1
    29   15   16 ar
    30   15   17 1
    31   16   44 1
    32   17   18 2
    33   17   19 1
    34   20   21 1
    35   20   45 1
    36   21   22 1
    37   21   46 1
    38   21   47 1
    39   22   27 ar
    40   22   23 ar
    41   23   24 ar
    42   23   48 1
    43   24   25 ar
    44   24   49 1
    45   25   26 ar
    46   25   28 1
    47   26   27 ar
    48   26   50 1
    49   27   51 1
    50   28   32 1
    51   28   29 1
    52   28   52 1
    53   29   30 1
    54   30   31 1
    55   30   53 1
    56   30   54 1
    57   31   32 1
    58   31   55 1
    59   31   56 1
@<TRIPOS>MOLECULE
CHEMBL144563
   58    61     0     0     0
SMALL
NO_CHARGES

@<TRIPOS>ATOM
      1 C1         -0.0880   -0.4289    0.9296 C.3       1 <0>        -0.1090
      2 C2         -0.6604   -1.8044    1.1563 C.ar      1 <0>        -0.1443
      3 C3         -1.5236   -2.3542    0.2298 C.ar      1 <0>        -0.0339
      4 C4         -2.0509   -3.6213    0.4385 C.ar      1 <0>         0.0589
      5 C5         -1.7108   -4.3359    1.5791 C.ar      1 <0>        -0.0337
      6 C6         -0.8477   -3.7868    2.5061 C.ar      1 <0>        -0.1427
      7 C7         -0.3150   -2.5216    2.2946 C.ar      1 <0>         0.2279
      8 N1          0.5642   -1.9675    3.2303 N.pl3     1 <0>        -0.7427
      9 C8          0.4887   -2.3729    4.6360 C.3       1 <0>         0.1653
     10 C9          1.3206   -1.4368    5.4742 C.ar      1 <0>        -0.1429
     11 C10         2.5973   -1.8108    5.8765 C.ar      1 <0>         0.0748
     12 N2          3.3516   -1.0212    6.6076 N.ar      1 <0>        -0.5118
     13 C11         2.9216    0.1796    6.9969 C.ar      1 <0>         0.3556
     14 C12         1.6290    0.6204    6.6199 C.ar      1 <0>        -0.1425
     15 C13         0.8221   -0.2131    5.8364 C.ar      1 <0>        -0.0740
     16 C14        -0.5563    0.2205    5.4085 C.3       1 <0>        -0.1300
     17 C15         1.1988    1.9005    7.0473 C.ar      1 <0>         0.3066
     18 N3          2.0280    2.6285    7.7821 N.ar      1 <0>        -0.5592
     19 C16         3.2338    2.1773    8.1142 C.ar      1 <0>         0.5860
     20 N4          3.6828    0.9930    7.7422 N.ar      1 <0>        -0.6037
     21 N5          4.0527    2.9833    8.8818 N.pl3     1 <0>        -0.8265
     22 N6         -0.0485    2.3768    6.7079 N.pl3     1 <0>        -0.8355
     23 C17        -0.4790   -4.5624    3.7445 C.3       1 <0>        -0.1248
     24 C18        -2.2843   -5.7110    1.8056 C.3       1 <0>        -0.1198
     25 N7         -2.9286   -4.1800   -0.5038 N.pl3     1 <0>        -0.3889
     26 C19        -4.1681   -3.7019   -0.8185 C.2       1 <0>        -0.0112
     27 C20        -4.7017   -4.5037   -1.7627 C.2       1 <0>        -0.1993
     28 C21        -3.7592   -5.5133   -2.0420 C.2       1 <0>        -0.2013
     29 C22        -2.6820   -5.2883   -1.2621 C.2       1 <0>        -0.0063
     30 C23        -1.8938   -1.5786   -1.0081 C.3       1 <0>        -0.1242
     31 H1          0.8455   -0.5110    0.3730 H         1 <0>         0.0657
     32 H2         -0.7985    0.1711    0.3610 H         1 <0>         0.0711
     33 H3          0.1029    0.0481    1.8909 H         1 <0>         0.0643
     34 H4          1.2241   -1.3148    2.9485 H         1 <0>         0.4014
     35 H5         -0.5483   -2.3352    4.9698 H         1 <0>         0.0725
     36 H6          0.8677   -3.3894    4.7419 H         1 <0>         0.0790
     37 H7          2.9796   -2.7765    5.5805 H         1 <0>         0.1513
     38 H8         -1.2629    0.0353    6.2174 H         1 <0>         0.0669
     39 H9         -0.5454    1.2846    5.1722 H         1 <0>         0.0913
     40 H10        -0.8574   -0.3445    4.5264 H         1 <0>         0.0734
     41 H11         3.7437    3.8576    9.1664 H         1 <0>         0.4258
     42 H12         4.9364    2.6747    9.1360 H         1 <0>         0.4113
     43 H13        -0.8105    1.7766    6.6973 H         1 <0>         0.4077
     44 H14        -0.1648    3.3123    6.4794 H         1 <0>         0.3973
     45 H15         0.5942   -4.7532    3.7476 H         1 <0>         0.0697
     46 H16        -0.7479   -3.9844    4.6286 H         1 <0>         0.0779
     47 H17        -1.0166   -5.5106    3.7529 H         1 <0>         0.0684
     48 H18        -1.6249   -6.4572    1.3625 H         1 <0>         0.0731
     49 H19        -2.3743   -5.8953    2.8761 H         1 <0>         0.0745
     50 H20        -3.2687   -5.7750    1.3419 H         1 <0>         0.0700
     51 H21        -4.6398   -2.8320   -0.3860 H         1 <0>         0.1569
     52 H22        -5.6736   -4.3925   -2.2206 H         1 <0>         0.1350
     53 H23        -3.8762   -6.3175   -2.7534 H         1 <0>         0.1349
     54 H24        -1.7811   -5.8835   -1.2394 H         1 <0>         0.1561
     55 H25        -1.1851   -1.8054   -1.8045 H         1 <0>         0.0729
     56 H26        -2.8985   -1.8584   -1.3252 H         1 <0>         0.0736
     57 H27        -1.8658   -0.5110   -0.7899 H         1 <0>         0.0733
     58 H28         4.5707    0.7092    8.0104 H         1 <0>         0.4181
@<TRIPOS>BOND
     1    1    2 1
     2    1   31 1
     3    1   32 1
     4    1   33 1
     5    2    7 ar
     6    2    3 ar
     7    3    4 ar
     8    3   30 1
     9    4    5 ar
    10    4   25 1
    11    5    6 ar
    12    5   24 1
    13    6    7 ar
    14    6   23 1
    15    7    8 1
    16    8    9 1
    17    8   34 1
    18    9   10 1
    19    9   35 1
    20    9   36 1
    21   10   15 ar
    22   10   11 ar
    23   11   12 ar
    24   11   37 1
    25   12   13 ar
    26   13   20 ar
    27   13   14 ar
    28   14   15 ar
    29   14   17 ar
    30   15   16 1
    31   16   38 1
    32   16   39 1
    33   16   40 1
    34   17   18 ar
    35   17   22 1
    36   18   19 ar
    37   19   20 ar
    38   19   21 1
    39   20   58 1
    40   21   41 1
    41   21   42 1
    42   22   43 1
    43   22   44 1
    44   23   45 1
    45   23   46 1
    46   23   47 1
    47   24   48 1
    48   24   49 1
    49   24   50 1
    50   25   29 1
    51   25   26 1
    52   26   27 2
    53   26   51 1
    54   27   28 1
    55   27   52 1
    56   28   29 2
    57   28   53 1
    58   29   54 1
    59   30   55 1
    60   30   56 1
    61   30   57 1
@<TRIPOS>MOLECULE
CHEMBL144563__1
   57    60     0     0     0
SMALL
NO_CHARGES

@<TRIPOS>ATOM
      1 C1         -0.0880   -0.4289    0.9296 C.3       1 <0>        -0.1093
      2 C2         -0.6604   -1.8044    1.1563 C.ar      1 <0>        -0.1434
      3 C3         -1.5236   -2.3542    0.2298 C.ar      1 <0>        -0.0339
      4 C4         -2.0509   -3.6213    0.4385 C.ar      1 <0>         0.0618
      5 C5         -1.7108   -4.3359    1.5791 C.ar      1 <0>        -0.0336
      6 C6         -0.8477   -3.7868    2.5061 C.ar      1 <0>        -0.1415
      7 C7         -0.3150   -2.5216    2.2946 C.ar      1 <0>         0.2256
      8 N1          0.5642   -1.9675    3.2303 N.pl3     1 <0>        -0.7467
      9 C8          0.4887   -2.3729    4.6360 C.3       1 <0>         0.1683
     10 C9          1.3206   -1.4368    5.4742 C.ar      1 <0>        -0.2207
     11 C10         2.5973   -1.8108    5.8765 C.ar      1 <0>         0.2084
     12 N2          3.3516   -1.0212    6.6076 N.ar      1 <0>        -0.4894
     13 C11         2.9216    0.1796    6.9969 C.ar      1 <0>         0.4169
     14 C12         1.6290    0.6204    6.6200 C.ar      1 <0>        -0.2834
     15 C13         0.8221   -0.2131    5.8364 C.ar      1 <0>         0.0608
     16 C14        -0.5563    0.2205    5.4085 C.3       1 <0>        -0.1573
     17 C15         1.1988    1.9005    7.0473 C.ar      1 <0>         0.5243
     18 N3          2.0280    2.6285    7.7821 N.ar      1 <0>        -0.6192
     19 C16         3.2338    2.1773    8.1142 C.ar      1 <0>         0.6262
     20 N4          3.6828    0.9930    7.7422 N.ar      1 <0>        -0.5925
     21 N5          4.0527    2.9833    8.8818 N.pl3     1 <0>        -0.8102
     22 N6         -0.0485    2.3768    6.7079 N.pl3     1 <0>        -0.8426
     23 C17        -0.4790   -4.5624    3.7445 C.3       1 <0>        -0.1260
     24 C18        -2.2843   -5.7110    1.8056 C.3       1 <0>        -0.1204
     25 N7         -2.9286   -4.1800   -0.5038 N.pl3     1 <0>        -0.3902
     26 C19        -4.1681   -3.7019   -0.8185 C.2       1 <0>        -0.0115
     27 C20        -4.7017   -4.5037   -1.7627 C.2       1 <0>        -0.1985
     28 C21        -3.7592   -5.5133   -2.0420 C.2       1 <0>        -0.2006
     29 C22        -2.6820   -5.2883   -1.2621 C.2       1 <0>        -0.0061
     30 C23        -1.8938   -1.5786   -1.0081 C.3       1 <0>        -0.1247
     31 H1          0.8455   -0.5110    0.3730 H         1 <0>         0.0667
     32 H2         -0.7985    0.1711    0.3610 H         1 <0>         0.0716
     33 H3          0.1029    0.0481    1.8909 H         1 <0>         0.0628
     34 H4          1.2241   -1.3148    2.9485 H         1 <0>         0.4014
     35 H5         -0.5483   -2.3352    4.9698 H         1 <0>         0.0751
     36 H6          0.8677   -3.3894    4.7419 H         1 <0>         0.0839
     37 H7          2.9796   -2.7765    5.5805 H         1 <0>         0.1669
     38 H8         -1.2629    0.0353    6.2174 H         1 <0>         0.0867
     39 H9         -0.5454    1.2846    5.1722 H         1 <0>         0.0990
     40 H10        -0.8574   -0.3445    4.5264 H         1 <0>         0.0885
     41 H11         3.7437    3.8576    9.1664 H         1 <0>         0.4164
     42 H12         4.9364    2.6747    9.1360 H         1 <0>         0.4191
     43 H13        -0.8105    1.7766    6.6973 H         1 <0>         0.4187
     44 H14        -0.1648    3.3123    6.4794 H         1 <0>         0.4106
     45 H15         0.5942   -4.7532    3.7476 H         1 <0>         0.0708
     46 H16        -0.7479   -3.9844    4.6286 H         1 <0>         0.0778
     47 H17        -1.0166   -5.5106    3.7529 H         1 <0>         0.0696
     48 H18        -1.6249   -6.4572    1.3625 H         1 <0>         0.0737
     49 H19        -2.3743   -5.8953    2.8761 H         1 <0>         0.0749
     50 H20        -3.2687   -5.7750    1.3419 H         1 <0>         0.0703
     51 H21        -4.6398   -2.8320   -0.3860 H         1 <0>         0.1570
     52 H22        -5.6736   -4.3925   -2.2206 H         1 <0>         0.1353
     53 H23        -3.8762   -6.3175   -2.7534 H         1 <0>         0.1353
     54 H24        -1.7811   -5.8835   -1.2394 H         1 <0>         0.1565
     55 H25        -1.1851   -1.8054   -1.8045 H         1 <0>         0.0735
     56 H26        -2.8985   -1.8584   -1.3252 H         1 <0>         0.0740
     57 H27        -1.8658   -0.5110   -0.7899 H         1 <0>         0.0734
@<TRIPOS>BOND
     1    1    2 1
     2    1   31 1
     3    1   32 1
     4    1   33 1
     5    2    7 ar
     6    2    3 ar
     7    3    4 ar
     8    3   30 1
     9    4    5 ar
    10    4   25 1
    11    5    6 ar
    12    5   24 1
    13    6    7 ar
    14    6   23 1
    15    7    8 1
    16    8    9 1
    17    8   34 1
    18    9   10 1
    19    9   35 1
    20    9   36 1
    21   10   15 ar
    22   10   11 ar
    23   11   12 ar
    24   11   37 1
    25   12   13 ar
    26   13   20 ar
    27   13   14 ar
    28   14   15 ar
    29   14   17 ar
    30   15   16 1
    31   16   38 1
    32   16   39 1
    33   16   40 1
    34   17   18 ar
    35   17   22 1
    36   18   19 ar
    37   19   20 ar
    38   19   21 1
    39   21   41 1
    40   21   42 1
    41   22   43 1
    42   22   44 1
    43   23   45 1
    44   23   46 1
    45   23   47 1
    46   24   48 1
    47   24   49 1
    48   24   50 1
    49   25   29 1
    50   25   26 1
    51   26   27 2
    52   26   51 1
    53   27   28 1
    54   27   52 1
    55   28   29 2
    56   28   53 1
    57   29   54 1
    58   30   55 1
    59   30   56 1
    60   30   57 1
@<TRIPOS>MOLECULE
CHEMBL80123
   38    40     0     0     0
SMALL
USER_CHARGES

@<TRIPOS>ATOM
      1 C1         -0.0132    1.3830    0.0587 C.ar      1 <0>        -0.1117
      2 C2          0.4574    0.7563    1.1978 C.ar      1 <0>        -0.1027
      3 C3          1.6621    0.0810    1.1684 C.ar      1 <0>        -0.1236
      4 C4          2.3998    0.0315   -0.0056 C.ar      1 <0>         0.0785
      5 C5          1.9252    0.6608   -1.1474 C.ar      1 <0>        -0.1155
      6 C6          0.7201    1.3352   -1.1126 C.ar      1 <0>        -0.1031
      7 O1          3.5856   -0.6318   -0.0370 O.3       1 <0>        -0.2902
      8 C7          3.5614   -1.9776    0.0599 C.2       1 <0>         0.4933
      9 O2          2.4977   -2.5680    0.0660 O.2       1 <0>        -0.4846
     10 C8          4.7753   -2.7032    0.1545 C.2       1 <0>        -0.1679
     11 C9          4.7511   -4.0509    0.2515 C.2       1 <0>        -0.0182
     12 C10         6.0093   -4.8030    0.3497 C.ar      1 <0>        -0.0696
     13 C11         7.2382   -4.1157    0.3481 C.ar      1 <0>        -0.0155
     14 C12         8.4140   -4.7896    0.4378 C.ar      1 <0>        -0.1374
     15 C13         8.4140   -6.1907    0.5338 C.ar      1 <0>         0.2044
     16 C14         7.1812   -6.8929    0.5362 C.ar      1 <0>        -0.1849
     17 C15         5.9803   -6.1921    0.4495 C.ar      1 <0>        -0.0144
     18 C16         7.2238   -8.3514    0.6382 C.ar      1 <0>         0.5625
     19 N1          8.4159   -8.9281    0.7223 N.ar      1 <0>        -0.5947
     20 C17         9.5327   -8.2078    0.7142 C.ar      1 <0>         0.6960
     21 N2          9.5505   -6.8922    0.6243 N.ar      1 <0>        -0.5853
     22 N3         10.7402   -8.8732    0.8055 N.pl3     1 <0>        -0.7861
     23 N4          6.0677   -9.0995    0.6471 N.pl3     1 <0>        -0.7581
     24 H1         -0.9573    1.9069    0.0826 H         1 <0>         0.1325
     25 H2         -0.1173    0.7950    2.1114 H         1 <0>         0.1332
     26 H3          2.0296   -0.4078    2.0586 H         1 <0>         0.1263
     27 H4          2.4978    0.6241   -2.0624 H         1 <0>         0.1328
     28 H5          0.3502    1.8252   -2.0011 H         1 <0>         0.1355
     29 H6          5.7196   -2.1791    0.1491 H         1 <0>         0.1488
     30 H7          3.8068   -4.5750    0.2569 H         1 <0>         0.1528
     31 H8          7.2459   -3.0383    0.2742 H         1 <0>         0.1611
     32 H9          9.3486   -4.2483    0.4349 H         1 <0>         0.1626
     33 H10         5.0381   -6.7198    0.4556 H         1 <0>         0.1562
     34 H11        10.7570   -9.8407    0.8730 H         1 <0>         0.4455
     35 H12        11.5712   -8.3728    0.8019 H         1 <0>         0.4315
     36 H13         5.2052   -8.6601    0.5851 H         1 <0>         0.4337
     37 H14         6.1159  -10.0659    0.7154 H         1 <0>         0.4353
     38 H15        10.4008   -6.4254    0.6235 H         1 <0>         0.4408
@<TRIPOS>BOND
     1    1    6 ar
     2    1    2 ar
     3    1   24 1
     4    2    3 ar
     5    2   25 1
     6    3    4 ar
     7    3   26 1
     8    4    5 ar
     9    4    7 1
    10    5    6 ar
    11    5   27 1
    12    6   28 1
    13    7    8 1
    14    8    9 2
    15    8   10 1
    16   10   11 2
    17   10   29 1
    18   11   12 1
    19   11   30 1
    20   12   17 ar
    21   12   13 ar
    22   13   14 ar
    23   13   31 1
    24   14   15 ar
    25   14   32 1
    26   15   21 ar
    27   15   16 ar
    28   16   17 ar
    29   16   18 ar
    30   17   33 1
    31   18   19 ar
    32   18   23 1
    33   19   20 ar
    34   20   21 ar
    35   20   22 1
    36   21   38 1
    37   22   34 1
    38   22   35 1
    39   23   36 1
    40   23   37 1
@<TRIPOS>MOLECULE
CHEMBL80123__1
   37    39     0     0     0
SMALL
USER_CHARGES

@<TRIPOS>ATOM
      1 C1         -0.0132    1.3830    0.0587 C.ar      1 <0>        -0.1184
      2 C2          0.4574    0.7563    1.1978 C.ar      1 <0>        -0.1037
      3 C3          1.6621    0.0810    1.1684 C.ar      1 <0>        -0.1251
      4 C4          2.3998    0.0315   -0.0056 C.ar      1 <0>         0.0879
      5 C5          1.9252    0.6608   -1.1474 C.ar      1 <0>        -0.1188
      6 C6          0.7201    1.3352   -1.1126 C.ar      1 <0>        -0.1048
      7 O1          3.5856   -0.6318   -0.0370 O.3       1 <0>        -0.2956
      8 C7          3.5614   -1.9776    0.0599 C.2       1 <0>         0.5029
      9 O2          2.4977   -2.5680    0.0660 O.2       1 <0>        -0.5007
     10 C8          4.7753   -2.7032    0.1545 C.2       1 <0>        -0.2228
     11 C9          4.7511   -4.0509    0.2515 C.2       1 <0>         0.0287
     12 C10         6.0093   -4.8030    0.3497 C.ar      1 <0>        -0.1322
     13 C11         7.2382   -4.1157    0.3481 C.ar      1 <0>        -0.0434
     14 C12         8.4140   -4.7896    0.4378 C.ar      1 <0>        -0.1288
     15 C13         8.4140   -6.1907    0.5338 C.ar      1 <0>         0.2538
     16 C14         7.1812   -6.8929    0.5362 C.ar      1 <0>        -0.2438
     17 C15         5.9803   -6.1921    0.4495 C.ar      1 <0>        -0.0097
     18 C16         7.2238   -8.3514    0.6382 C.ar      1 <0>         0.5178
     19 N1          8.4159   -8.9281    0.7223 N.ar      1 <0>        -0.6352
     20 C17         9.5327   -8.2078    0.7142 C.ar      1 <0>         0.6238
     21 N2          9.5505   -6.8922    0.6243 N.ar      1 <0>        -0.6171
     22 N3         10.7402   -8.8732    0.8055 N.pl3     1 <0>        -0.8147
     23 N4          6.0677   -9.0995    0.6471 N.pl3     1 <0>        -0.8104
     24 H1         -0.9573    1.9069    0.0826 H         1 <0>         0.1292
     25 H2         -0.1173    0.7950    2.1114 H         1 <0>         0.1307
     26 H3          2.0296   -0.4078    2.0586 H         1 <0>         0.1266
     27 H4          2.4978    0.6241   -2.0624 H         1 <0>         0.1321
     28 H5          0.3502    1.8252   -2.0011 H         1 <0>         0.1325
     29 H6          5.7196   -2.1791    0.1491 H         1 <0>         0.1444
     30 H7          3.8068   -4.5750    0.2569 H         1 <0>         0.1395
     31 H8          7.2459   -3.0383    0.2742 H         1 <0>         0.1381
     32 H9          9.3486   -4.2483    0.4349 H         1 <0>         0.1424
     33 H10         5.0381   -6.7198    0.4556 H         1 <0>         0.1308
     34 H11        10.7570   -9.8407    0.8730 H         1 <0>         0.4142
     35 H12        11.5712   -8.3728    0.8019 H         1 <0>         0.4173
     36 H13         5.2052   -8.6601    0.5851 H         1 <0>         0.4165
     37 H14         6.1159  -10.0659    0.7154 H         1 <0>         0.4161
@<TRIPOS>BOND
     1    1    6 ar
     2    1    2 ar
     3    1   24 1
     4    2    3 ar
     5    2   25 1
     6    3    4 ar
     7    3   26 1
     8    4    5 ar
     9    4    7 1
    10    5    6 ar
    11    5   27 1
    12    6   28 1
    13    7    8 1
    14    8    9 2
    15    8   10 1
    16   10   11 2
    17   10   29 1
    18   11   12 1
    19   11   30 1
    20   12   17 ar
    21   12   13 ar
    22   13   14 ar
    23   13   31 1
    24   14   15 ar
    25   14   32 1
    26   15   21 ar
    27   15   16 ar
    28   16   17 ar
    29   16   18 ar
    30   17   33 1
    31   18   19 ar
    32   18   23 1
    33   19   20 ar
    34   20   21 ar
    35   20   22 1
    36   22   34 1
    37   22   35 1
    38   23   36 1
    39   23   37 1
@<TRIPOS>MOLECULE
CHEMBL267460
   62    65     0     0     0
SMALL
USER_CHARGES

@<TRIPOS>ATOM
      1 C1         -0.0178    1.4608    0.0101 C.3       1 <0>         0.0921
      2 N1          0.0021   -0.0041    0.0020 N.pl3     1 <0>        -0.6197
      3 C2          0.0241   -0.7433    1.2666 C.3       1 <0>         0.1835
      4 C3         -1.3889   -1.0161    1.7137 C.ar      1 <0>         0.0234
      5 C4         -1.9892   -2.2351    1.3999 C.ar      1 <0>         0.1545
      6 N2         -3.2219   -2.4965    1.7797 N.ar      1 <0>        -0.4365
      7 C5         -3.9051   -1.5830    2.4739 C.ar      1 <0>         0.3748
      8 C6         -3.2902   -0.3458    2.7901 C.ar      1 <0>        -0.0923
      9 N3         -2.0425   -0.1038    2.4012 N.ar      1 <0>        -0.3707
     10 C7         -4.0706    0.6301    3.5527 C.ar      1 <0>         0.5437
     11 N4         -5.3055    0.2953    3.9004 N.ar      1 <0>        -0.6286
     12 C8         -5.8196   -0.8850    3.5693 C.ar      1 <0>         0.6387
     13 N5         -5.1609   -1.7987    2.8845 N.ar      1 <0>        -0.5993
     14 N6         -7.1130   -1.1692    3.9639 N.pl3     1 <0>        -0.8077
     15 N7         -3.5402    1.8539    3.8976 N.pl3     1 <0>        -0.7936
     16 C9          0.0000   -0.6928   -1.2059 C.ar      1 <0>         0.2295
     17 C10         0.0132   -2.0849   -1.2118 C.ar      1 <0>        -0.2110
     18 C11         0.0112   -2.7693   -2.4056 C.ar      1 <0>        -0.0102
     19 C12        -0.0041   -2.0653   -3.6133 C.ar      1 <0>        -0.1745
     20 C13        -0.0173   -0.6674   -3.6040 C.ar      1 <0>        -0.0354
     21 C14        -0.0210    0.0112   -2.4068 C.ar      1 <0>        -0.2016
     22 C15        -0.0058   -2.7960   -4.8948 C.2       1 <0>         0.5612
     23 O1          0.0061   -4.0119   -4.9015 O.2       1 <0>        -0.5458
     24 N8         -0.0205   -2.1158   -6.0583 N.am      1 <0>        -0.6969
     25 C16        -0.0222   -2.8414   -7.3310 C.3       1 <0>         0.0646
     26 C17         0.5711   -1.9524   -8.4257 C.3       1 <0>         0.1291
     27 N9          1.9012   -1.4950   -8.0158 N.am      1 <0>        -0.7174
     28 C18         2.6184   -0.6941   -8.8285 C.2       1 <0>         0.5511
     29 O2          2.1618   -0.3513   -9.9017 O.2       1 <0>        -0.5339
     30 C19         3.9602   -0.2327   -8.4151 C.ar      1 <0>        -0.1227
     31 C20         4.4897   -0.6295   -7.1857 C.ar      1 <0>        -0.0737
     32 C21         5.7424   -0.1961   -6.8056 C.ar      1 <0>        -0.1163
     33 C22         6.4748    0.6316   -7.6404 C.ar      1 <0>        -0.0157
     34 C23         5.9547    1.0286   -8.8613 C.ar      1 <0>        -0.1188
     35 C24         4.7055    0.5970   -9.2548 C.ar      1 <0>        -0.0486
     36 Cl1         8.0506    1.1740   -7.1545 Cl        1 <0>        -0.0678
     37 C25        -1.4367   -3.2117   -7.6962 C.2       1 <0>         0.4957
     38 O3         -2.3707   -2.7470   -7.0653 O.co2     1 <0>        -0.6772
     39 O4         -1.6469   -3.9759   -8.6226 O.co2     1 <0>        -0.6897
     40 H1          1.0048    1.8381    0.0023 H         1 <0>         0.0524
     41 H2         -0.5450    1.8219   -0.8730 H         1 <0>         0.0687
     42 H3         -0.5280    1.8123    0.9069 H         1 <0>         0.0692
     43 H4          0.5496   -1.6879    1.1262 H         1 <0>         0.1017
     44 H5          0.5371   -0.1514    2.0246 H         1 <0>         0.0973
     45 H6         -1.4361   -2.9733    0.8382 H         1 <0>         0.1794
     46 H7         -7.6209   -0.5150    4.4689 H         1 <0>         0.4161
     47 H8         -7.5132   -2.0229    3.7358 H         1 <0>         0.4200
     48 H9         -2.6346    2.0814    3.6347 H         1 <0>         0.4247
     49 H10        -4.0722    2.4880    4.4032 H         1 <0>         0.4151
     50 H11         0.0253   -2.6282   -0.2785 H         1 <0>         0.1243
     51 H12         0.0217   -3.8493   -2.4096 H         1 <0>         0.1363
     52 H13        -0.0287   -0.1208   -4.5353 H         1 <0>         0.1239
     53 H14        -0.0359    1.0910   -2.3989 H         1 <0>         0.1256
     54 H15        -0.0300   -1.1459   -6.0530 H         1 <0>         0.3903
     55 H16         0.5768   -3.7469   -7.2338 H         1 <0>         0.0920
     56 H17         0.6520   -2.5215   -9.3518 H         1 <0>         0.0904
     57 H18        -0.0766   -1.0903   -8.5844 H         1 <0>         0.0739
     58 H19         2.2656   -1.7686   -7.1595 H         1 <0>         0.3985
     59 H20         3.9192   -1.2743   -6.5336 H         1 <0>         0.1372
     60 H21         6.1531   -0.5024   -5.8548 H         1 <0>         0.1399
     61 H22         6.5303    1.6743   -9.5079 H         1 <0>         0.1397
     62 H23         4.3028    0.9038  -10.2088 H         1 <0>         0.1468
@<TRIPOS>BOND
     1    1    2 1
     2    1   40 1
     3    1   41 1
     4    1   42 1
     5    2    3 1
     6    2   16 1
     7    3    4 1
     8    3   43 1
     9    3   44 1
    10    4    9 ar
    11    4    5 ar
    12    5    6 ar
    13    5   45 1
    14    6    7 ar
    15    7   13 ar
    16    7    8 ar
    17    8    9 ar
    18    8   10 ar
    19   10   11 ar
    20   10   15 1
    21   11   12 ar
    22   12   13 ar
    23   12   14 1
    24   14   46 1
    25   14   47 1
    26   15   48 1
    27   15   49 1
    28   16   21 ar
    29   16   17 ar
    30   17   18 ar
    31   17   50 1
    32   18   19 ar
    33   18   51 1
    34   19   20 ar
    35   19   22 1
    36   20   21 ar
    37   20   52 1
    38   21   53 1
    39   22   23 2
    40   22   24 am
    41   24   25 1
    42   24   54 1
    43   25   26 1
    44   25   37 1
    45   25   55 1
    46   26   27 1
    47   26   56 1
    48   26   57 1
    49   27   28 am
    50   27   58 1
    51   28   29 2
    52   28   30 1
    53   30   35 ar
    54   30   31 ar
    55   31   32 ar
    56   31   59 1
    57   32   33 ar
    58   32   60 1
    59   33   34 ar
    60   33   36 1
    61   34   35 ar
    62   34   61 1
    63   35   62 1
    64   37   38 2
    65   37   39 1
@<TRIPOS>MOLECULE
CHEMBL267460__1
   62    65     0     0     0
SMALL
USER_CHARGES

@<TRIPOS>ATOM
      1 C1         -0.0178    1.4608    0.0101 C.3       1 <0>         0.0920
      2 N1          0.0021   -0.0041    0.0020 N.pl3     1 <0>        -0.6194
      3 C2          0.0241   -0.7433    1.2666 C.3       1 <0>         0.1823
      4 C3         -1.3889   -1.0161    1.7137 C.ar      1 <0>         0.0252
      5 C4         -1.9892   -2.2351    1.3999 C.ar      1 <0>         0.1541
      6 N2         -3.2219   -2.4965    1.7797 N.ar      1 <0>        -0.4377
      7 C5         -3.9051   -1.5830    2.4739 C.ar      1 <0>         0.3740
      8 C6         -3.2902   -0.3458    2.7901 C.ar      1 <0>        -0.0920
      9 N3         -2.0425   -0.1038    2.4012 N.ar      1 <0>        -0.3705
     10 C7         -4.0706    0.6301    3.5527 C.ar      1 <0>         0.5439
     11 N4         -5.3055    0.2953    3.9004 N.ar      1 <0>        -0.6290
     12 C8         -5.8196   -0.8850    3.5693 C.ar      1 <0>         0.6388
     13 N5         -5.1609   -1.7987    2.8845 N.ar      1 <0>        -0.6003
     14 N6         -7.1130   -1.1692    3.9639 N.pl3     1 <0>        -0.8080
     15 N7         -3.5402    1.8539    3.8976 N.pl3     1 <0>        -0.7931
     16 C9          0.0000   -0.6928   -1.2059 C.ar      1 <0>         0.2303
     17 C10         0.0132   -2.0849   -1.2118 C.ar      1 <0>        -0.2111
     18 C11         0.0112   -2.7693   -2.4056 C.ar      1 <0>        -0.0097
     19 C12        -0.0041   -2.0653   -3.6133 C.ar      1 <0>        -0.1764
     20 C13        -0.0173   -0.6674   -3.6040 C.ar      1 <0>        -0.0348
     21 C14        -0.0210    0.0112   -2.4068 C.ar      1 <0>        -0.2017
     22 C15        -0.0058   -2.7960   -4.8948 C.2       1 <0>         0.5567
     23 O1          0.0061   -4.0119   -4.9015 O.2       1 <0>        -0.5436
     24 N8         -0.0205   -2.1158   -6.0583 N.am      1 <0>        -0.6976
     25 C16        -0.0222   -2.8414   -7.3310 C.3       1 <0>         0.0654
     26 C17        -0.6480   -1.9644   -8.4172 C.3       1 <0>         0.1270
     27 N9         -1.9810   -1.5331   -7.9889 N.am      1 <0>        -0.7170
     28 C18        -2.7250   -0.7465   -8.7915 C.2       1 <0>         0.5517
     29 O2         -2.2901   -0.3949   -9.8708 O.2       1 <0>        -0.5340
     30 C19        -4.0697   -0.3115   -8.3595 C.ar      1 <0>        -0.1228
     31 C20        -4.5696   -0.7089   -7.1180 C.ar      1 <0>        -0.0736
     32 C21        -5.8248   -0.2994   -6.7201 C.ar      1 <0>        -0.1165
     33 C22        -6.5894    0.5042   -7.5496 C.ar      1 <0>        -0.0154
     34 C23        -6.0988    0.9018   -8.7824 C.ar      1 <0>        -0.1187
     35 C24        -4.8427    0.5034   -9.1887 C.ar      1 <0>        -0.0484
     36 Cl1        -8.1692    1.0148   -7.0422 Cl        1 <0>        -0.0679
     37 C25         1.3940   -3.1839   -7.7158 C.2       1 <0>         0.4970
     38 O3          1.6222   -4.1867   -8.3707 O.co2     1 <0>        -0.6860
     39 O4          2.3115   -2.4583   -7.3723 O.co2     1 <0>        -0.6816
     40 H1          1.0048    1.8381    0.0023 H         1 <0>         0.0532
     41 H2         -0.5450    1.8219   -0.8730 H         1 <0>         0.0685
     42 H3         -0.5280    1.8123    0.9069 H         1 <0>         0.0692
     43 H4          0.5496   -1.6879    1.1262 H         1 <0>         0.1024
     44 H5          0.5371   -0.1514    2.0246 H         1 <0>         0.0978
     45 H6         -1.4361   -2.9733    0.8382 H         1 <0>         0.1798
     46 H7         -7.6209   -0.5150    4.4689 H         1 <0>         0.4162
     47 H8         -7.5132   -2.0229    3.7358 H         1 <0>         0.4197
     48 H9         -2.6346    2.0814    3.6347 H         1 <0>         0.4251
     49 H10        -4.0722    2.4880    4.4032 H         1 <0>         0.4153
     50 H11         0.0253   -2.6282   -0.2785 H         1 <0>         0.1246
     51 H12         0.0217   -3.8493   -2.4096 H         1 <0>         0.1365
     52 H13        -0.0287   -0.1208   -4.5353 H         1 <0>         0.1246
     53 H14        -0.0359    1.0910   -2.3989 H         1 <0>         0.1259
     54 H15        -0.0300   -1.1459   -6.0530 H         1 <0>         0.3918
     55 H16        -0.6020   -3.7584   -7.2256 H         1 <0>         0.0916
     56 H17        -0.0196   -1.0897   -8.5848 H         1 <0>         0.0777
     57 H18        -0.7306   -2.5351   -9.3422 H         1 <0>         0.0867
     58 H19        -2.3281   -1.8137   -7.1277 H         1 <0>         0.3987
     59 H20        -3.9746   -1.3361   -6.4707 H         1 <0>         0.1369
     60 H21        -6.2126   -0.6062   -5.7599 H         1 <0>         0.1394
     61 H22        -6.6997    1.5281   -9.4250 H         1 <0>         0.1399
     62 H23        -4.4596    0.8173  -10.1484 H         1 <0>         0.1471
@<TRIPOS>BOND
     1    1    2 1
     2    1   40 1
     3    1   41 1
     4    1   42 1
     5    2    3 1
     6    2   16 1
     7    3    4 1
     8    3   43 1
     9    3   44 1
    10    4    9 ar
    11    4    5 ar
    12    5    6 ar
    13    5   45 1
    14    6    7 ar
    15    7   13 ar
    16    7    8 ar
    17    8    9 ar
    18    8   10 ar
    19   10   11 ar
    20   10   15 1
    21   11   12 ar
    22   12   13 ar
    23   12   14 1
    24   14   46 1
    25   14   47 1
    26   15   48 1
    27   15   49 1
    28   16   21 ar
    29   16   17 ar
    30   17   18 ar
    31   17   50 1
    32   18   19 ar
    33   18   51 1
    34   19   20 ar
    35   19   22 1
    36   20   21 ar
    37   20   52 1
    38   21   53 1
    39   22   23 2
    40   22   24 am
    41   24   25 1
    42   24   54 1
    43   25   26 1
    44   25   37 1
    45   25   55 1
    46   26   27 1
    47   26   56 1
    48   26   57 1
    49   27   28 am
    50   27   58 1
    51   28   29 2
    52   28   30 1
    53   30   35 ar
    54   30   31 ar
    55   31   32 ar
    56   31   59 1
    57   32   33 ar
    58   32   60 1
    59   33   34 ar
    60   33   36 1
    61   34   35 ar
    62   34   61 1
    63   35   62 1
    64   37   38 2
    65   37   39 1
@<TRIPOS>MOLECULE
CHEMBL219544
   17    18     0     0     0
SMALL
USER_CHARGES

@<TRIPOS>ATOM
      1 C1         -0.0184    1.5054    0.0103 C.3       1 <0>        -0.0959
      2 C2          1.4540    1.8671   -0.0018 C.2       1 <0>         0.1940
      3 N1          2.1224    0.7667   -0.0141 N.2       1 <0>        -0.4814
      4 C3          1.3477   -0.3543   -0.0127 C.2       1 <0>         0.3807
      5 C4          0.0021   -0.0041    0.0020 C.2       1 <0>        -0.3786
      6 C5         -0.9772   -0.9935    0.0057 C.2       1 <0>         0.5742
      7 O1         -2.1617   -0.6996    0.0181 O.2       1 <0>        -0.5356
      8 N2         -0.5854   -2.2880   -0.0054 N.am      1 <0>        -0.6536
      9 H1         -1.2474   -2.9970   -0.0035 H         1 <0>         0.4176
     10 C6          0.7412   -2.5922   -0.0197 C.2       1 <0>         0.6548
     11 N3          1.6691   -1.6613   -0.0232 N.2       1 <0>        -0.5724
     12 N4          1.1207   -3.9082   -0.0308 N.pl3     1 <0>        -0.8156
     13 H2         -0.4997    1.8793    0.9140 H         1 <0>         0.1263
     14 H3         -0.5168    1.8889   -0.8799 H         1 <0>         0.1263
     15 H4          1.8666    2.8651   -0.0007 H         1 <0>         0.2096
     16 H5          0.4480   -4.6070   -0.0284 H         1 <0>         0.4179
     17 H6          2.0622   -4.1414   -0.0410 H         1 <0>         0.4317
@<TRIPOS>BOND
     1    1    5 1
     2    1    2 1
     3    1   13 1
     4    1   14 1
     5    2    3 2
     6    2   15 1
     7    3    4 1
     8    4   11 1
     9    4    5 2
    10    5    6 1
    11    6    7 2
    12    6    8 am
    13    8    9 1
    14    8   10 1
    15   10   11 2
    16   10   12 1
    17   12   16 1
    18   12   17 1
@<TRIPOS>MOLECULE
CHEMBL134817
   59    62     0     0     0
SMALL
USER_CHARGES

@<TRIPOS>ATOM
      1 C1         -0.0167    1.3593   -0.0428 C.ar      1 <0>        -0.1239
      2 C2          1.1682    2.0898   -0.0497 C.ar      1 <0>        -0.1208
      3 C3          2.3780    1.4628   -0.0476 C.ar      1 <0>        -0.1191
      4 C4          2.4333    0.0609   -0.0384 C.ar      1 <0>        -0.0918
      5 C5          1.2281   -0.6794   -0.0314 C.ar      1 <0>         0.0194
      6 C6          0.0019   -0.0041   -0.0337 C.ar      1 <0>        -0.0933
      7 C7          1.2934   -2.1404   -0.0218 C.ar      1 <0>        -0.1391
      8 C8          2.5408   -2.7584   -0.0198 C.ar      1 <0>        -0.0381
      9 C9          3.7011   -2.0067   -0.0268 C.ar      1 <0>        -0.2065
     10 C10         3.6689   -0.6249   -0.0355 C.ar      1 <0>         0.2219
     11 N1          4.8540    0.0914   -0.0428 N.pl3     1 <0>        -0.7417
     12 C11         6.1372   -0.6154   -0.0398 C.3       1 <0>         0.1552
     13 C12         7.2627    0.3867   -0.0491 C.ar      1 <0>        -0.0959
     14 C13         7.7695    0.8386   -1.2640 C.ar      1 <0>        -0.0010
     15 C14         8.7875    1.7444   -1.3071 C.ar      1 <0>        -0.1458
     16 C15         9.3332    2.2296   -0.1108 C.ar      1 <0>         0.2033
     17 C16         8.8158    1.7688    1.1242 C.ar      1 <0>        -0.1938
     18 C17         7.7672    0.8428    1.1335 C.ar      1 <0>        -0.0189
     19 C18         9.3829    2.2739    2.3208 C.ar      1 <0>         0.5644
     20 N2         10.3700    3.1527    2.2263 N.ar      1 <0>        -0.5995
     21 C19        10.8262    3.5588    1.0448 C.ar      1 <0>         0.6920
     22 N3         10.3349    3.1214   -0.0989 N.ar      1 <0>        -0.5837
     23 N4         11.8586    4.4787    1.0139 N.pl3     1 <0>        -0.7923
     24 N5          8.9192    1.8616    3.5516 N.pl3     1 <0>        -0.7638
     25 C20         0.0619   -2.9432   -0.0139 C.2       1 <0>         0.5547
     26 O1         -1.0199   -2.3967    0.0912 O.2       1 <0>        -0.5551
     27 N6          0.1314   -4.2848   -0.1230 N.am      1 <0>        -0.6715
     28 C21        -1.0958   -5.0849   -0.1151 C.3       1 <0>         0.0726
     29 C22        -0.7781   -6.5013    0.3681 C.3       1 <0>        -0.0821
     30 C23        -0.3180   -6.4515    1.8265 C.3       1 <0>        -0.1766
     31 C24        -0.0050   -7.8467    2.3024 C.2       1 <0>         0.4901
     32 O2         -0.1376   -8.7932    1.5454 O.co2     1 <0>        -0.6957
     33 O3          0.3809   -8.0290    3.4445 O.co2     1 <0>        -0.7201
     34 C25        -1.6649   -5.1455   -1.5092 C.2       1 <0>         0.4970
     35 O4         -1.0117   -4.7336   -2.4527 O.co2     1 <0>        -0.6989
     36 O5         -2.7785   -5.6065   -1.6935 O.co2     1 <0>        -0.6978
     37 H1         -0.9633    1.8794   -0.0400 H         1 <0>         0.1221
     38 H2          1.1281    3.1690   -0.0571 H         1 <0>         0.1150
     39 H3          3.2896    2.0419   -0.0534 H         1 <0>         0.1090
     40 H4         -0.9242   -0.5598   -0.0281 H         1 <0>         0.1736
     41 H5          2.6028   -3.8366   -0.0123 H         1 <0>         0.1324
     42 H6          4.6560   -2.5114   -0.0247 H         1 <0>         0.1225
     43 H7          4.8345    1.0612   -0.0498 H         1 <0>         0.3971
     44 H8          6.2090   -1.2342    0.8546 H         1 <0>         0.0829
     45 H9          6.2060   -1.2473   -0.9253 H         1 <0>         0.0856
     46 H10         7.3501    0.4657   -2.1868 H         1 <0>         0.1603
     47 H11         9.1713    2.0856   -2.2572 H         1 <0>         0.1593
     48 H12         7.3628    0.4885    2.0701 H         1 <0>         0.1532
     49 H13        12.2345    4.8139    1.8428 H         1 <0>         0.4432
     50 H14        12.2067    4.7886    0.1632 H         1 <0>         0.4294
     51 H15         8.1957    1.2178    3.6065 H         1 <0>         0.4343
     52 H16         9.3164    2.2152    4.3628 H         1 <0>         0.4320
     53 H17         0.9939   -4.7206   -0.2067 H         1 <0>         0.3891
     54 H18        -1.8236   -4.6271    0.5549 H         1 <0>         0.0797
     55 H19        -1.6715   -7.1209    0.2900 H         1 <0>         0.0783
     56 H20         0.0140   -6.9264   -0.2484 H         1 <0>         0.0564
     57 H21         0.5754   -5.8320    1.9046 H         1 <0>         0.0488
     58 H22        -1.1100   -6.0264    2.4430 H         1 <0>         0.0529
     59 H23        10.7007    3.4466   -0.9364 H         1 <0>         0.4393
@<TRIPOS>BOND
     1    1    6 ar
     2    1    2 ar
     3    1   37 1
     4    2    3 ar
     5    2   38 1
     6    3    4 ar
     7    3   39 1
     8    4   10 ar
     9    4    5 ar
    10    5    6 ar
    11    5    7 ar
    12    6   40 1
    13    7    8 ar
    14    7   25 1
    15    8    9 ar
    16    8   41 1
    17    9   10 ar
    18    9   42 1
    19   10   11 1
    20   11   12 1
    21   11   43 1
    22   12   13 1
    23   12   44 1
    24   12   45 1
    25   13   18 ar
    26   13   14 ar
    27   14   15 ar
    28   14   46 1
    29   15   16 ar
    30   15   47 1
    31   16   22 ar
    32   16   17 ar
    33   17   18 ar
    34   17   19 ar
    35   18   48 1
    36   19   20 ar
    37   19   24 1
    38   20   21 ar
    39   21   22 ar
    40   21   23 1
    41   22   59 1
    42   23   49 1
    43   23   50 1
    44   24   51 1
    45   24   52 1
    46   25   26 2
    47   25   27 am
    48   27   28 1
    49   27   53 1
    50   28   29 1
    51   28   34 1
    52   28   54 1
    53   29   30 1
    54   29   55 1
    55   29   56 1
    56   30   31 1
    57   30   57 1
    58   30   58 1
    59   31   32 2
    60   31   33 1
    61   34   35 2
    62   34   36 1
@<TRIPOS>MOLECULE
CHEMBL134817__1
   59    62     0     0     0
SMALL
USER_CHARGES

@<TRIPOS>ATOM
      1 C1         -0.0167    1.3593   -0.0428 C.ar      1 <0>        -0.1231
      2 C2          1.1682    2.0898   -0.0497 C.ar      1 <0>        -0.1212
      3 C3          2.3780    1.4628   -0.0476 C.ar      1 <0>        -0.1183
      4 C4          2.4333    0.0609   -0.0384 C.ar      1 <0>        -0.0923
      5 C5          1.2281   -0.6794   -0.0314 C.ar      1 <0>         0.0195
      6 C6          0.0019   -0.0041   -0.0338 C.ar      1 <0>        -0.0949
      7 C7          1.2934   -2.1404   -0.0218 C.ar      1 <0>        -0.1422
      8 C8          2.5408   -2.7584   -0.0198 C.ar      1 <0>        -0.0357
      9 C9          3.7011   -2.0067   -0.0268 C.ar      1 <0>        -0.2069
     10 C10         3.6689   -0.6249   -0.0355 C.ar      1 <0>         0.2229
     11 N1          4.8540    0.0914   -0.0428 N.pl3     1 <0>        -0.7415
     12 C11         6.1372   -0.6154   -0.0398 C.3       1 <0>         0.1550
     13 C12         7.2627    0.3867   -0.0491 C.ar      1 <0>        -0.0960
     14 C13         7.7695    0.8386   -1.2640 C.ar      1 <0>        -0.0009
     15 C14         8.7875    1.7444   -1.3071 C.ar      1 <0>        -0.1457
     16 C15         9.3332    2.2296   -0.1108 C.ar      1 <0>         0.2034
     17 C16         8.8158    1.7689    1.1242 C.ar      1 <0>        -0.1939
     18 C17         7.7672    0.8428    1.1335 C.ar      1 <0>        -0.0190
     19 C18         9.3829    2.2739    2.3208 C.ar      1 <0>         0.5644
     20 N2         10.3700    3.1527    2.2263 N.ar      1 <0>        -0.5995
     21 C19        10.8262    3.5588    1.0448 C.ar      1 <0>         0.6920
     22 N3         10.3349    3.1214   -0.0989 N.ar      1 <0>        -0.5836
     23 N4         11.8586    4.4787    1.0139 N.pl3     1 <0>        -0.7923
     24 N5          8.9192    1.8616    3.5516 N.pl3     1 <0>        -0.7640
     25 C20         0.0619   -2.9432   -0.0139 C.2       1 <0>         0.5502
     26 O1         -1.0199   -2.3967    0.0912 O.2       1 <0>        -0.5529
     27 N6          0.1314   -4.2848   -0.1230 N.am      1 <0>        -0.6723
     28 C21        -1.0958   -5.0849   -0.1151 C.3       1 <0>         0.0736
     29 C22        -0.8479   -6.4062   -0.8454 C.3       1 <0>        -0.0831
     30 C23        -0.5565   -6.1265   -2.3211 C.3       1 <0>        -0.1766
     31 C24        -0.3123   -7.4280   -3.0405 C.2       1 <0>         0.4903
     32 O2         -0.3663   -8.4817   -2.4294 O.co2     1 <0>        -0.6964
     33 O3         -0.0608   -7.4273   -4.2335 O.co2     1 <0>        -0.7192
     34 C25        -1.5028   -5.3663    1.3083 C.2       1 <0>         0.4986
     35 O4         -2.6809   -5.5072    1.5890 O.co2     1 <0>        -0.6981
     36 O5         -0.6541   -5.4531    2.1793 O.co2     1 <0>        -0.7003
     37 H1         -0.9633    1.8794   -0.0401 H         1 <0>         0.1223
     38 H2          1.1281    3.1690   -0.0571 H         1 <0>         0.1152
     39 H3          3.2896    2.0419   -0.0534 H         1 <0>         0.1091
     40 H4         -0.9242   -0.5598   -0.0281 H         1 <0>         0.1736
     41 H5          2.6028   -3.8366   -0.0123 H         1 <0>         0.1334
     42 H6          4.6560   -2.5114   -0.0247 H         1 <0>         0.1228
     43 H7          4.8345    1.0612   -0.0498 H         1 <0>         0.3971
     44 H8          6.2090   -1.2342    0.8546 H         1 <0>         0.0828
     45 H9          6.2060   -1.2473   -0.9253 H         1 <0>         0.0860
     46 H10         7.3501    0.4657   -2.1868 H         1 <0>         0.1605
     47 H11         9.1713    2.0856   -2.2572 H         1 <0>         0.1594
     48 H12         7.3628    0.4885    2.0701 H         1 <0>         0.1531
     49 H13        12.2345    4.8139    1.8428 H         1 <0>         0.4432
     50 H14        12.2067    4.7886    0.1632 H         1 <0>         0.4294
     51 H15         8.1957    1.2178    3.6065 H         1 <0>         0.4342
     52 H16         9.3164    2.2152    4.3628 H         1 <0>         0.4320
     53 H17         0.9939   -4.7206   -0.2067 H         1 <0>         0.3905
     54 H18        -1.8911   -4.5352   -0.6185 H         1 <0>         0.0794
     55 H19         0.0054   -6.9148   -0.3967 H         1 <0>         0.0600
     56 H20        -1.7320   -7.0383   -0.7631 H         1 <0>         0.0738
     57 H21        -1.4098   -5.6179   -2.7698 H         1 <0>         0.0530
     58 H22         0.3276   -5.4944   -2.4035 H         1 <0>         0.0497
     59 H23        10.7007    3.4466   -0.9364 H         1 <0>         0.4394
@<TRIPOS>BOND
     1    1    6 ar
     2    1    2 ar
     3    1   37 1
     4    2    3 ar
     5    2   38 1
     6    3    4 ar
     7    3   39 1
     8    4   10 ar
     9    4    5 ar
    10    5    6 ar
    11    5    7 ar
    12    6   40 1
    13    7    8 ar
    14    7   25 1
    15    8    9 ar
    16    8   41 1
    17    9   10 ar
    18    9   42 1
    19   10   11 1
    20   11   12 1
    21   11   43 1
    22   12   13 1
    23   12   44 1
    24   12   45 1
    25   13   18 ar
    26   13   14 ar
    27   14   15 ar
    28   14   46 1
    29   15   16 ar
    30   15   47 1
    31   16   22 ar
    32   16   17 ar
    33   17   18 ar
    34   17   19 ar
    35   18   48 1
    36   19   20 ar
    37   19   24 1
    38   20   21 ar
    39   21   22 ar
    40   21   23 1
    41   22   59 1
    42   23   49 1
    43   23   50 1
    44   24   51 1
    45   24   52 1
    46   25   26 2
    47   25   27 am
    48   27   28 1
    49   27   53 1
    50   28   29 1
    51   28   34 1
    52   28   54 1
    53   29   30 1
    54   29   55 1
    55   29   56 1
    56   30   31 1
    57   30   57 1
    58   30   58 1
    59   31   32 2
    60   31   33 1
    61   34   35 2
    62   34   36 1
@<TRIPOS>MOLECULE
CHEMBL283515
   38    41     0     0     0
SMALL
USER_CHARGES

@<TRIPOS>ATOM
      1 C1         -0.0164    1.3569    0.0095 C.ar      1 <0>        -0.1092
      2 C2          1.1684    2.0901    0.0021 C.ar      1 <0>        -0.1015
      3 C3          2.3785    1.4657   -0.0133 C.ar      1 <0>        -0.1127
      4 C4          2.4368    0.0637   -0.0213 C.ar      1 <0>        -0.0278
      5 C5          1.2329   -0.6830   -0.0134 C.ar      1 <0>        -0.0401
      6 C6          0.0021   -0.0041    0.0020 C.ar      1 <0>        -0.1014
      7 C7          1.2896   -2.0871   -0.0215 C.ar      1 <0>        -0.0922
      8 C8          2.4959   -2.7194   -0.0368 C.ar      1 <0>        -0.1071
      9 C9          3.6852   -1.9980   -0.0443 C.ar      1 <0>        -0.1226
     10 C10         3.6731   -0.6182   -0.0368 C.ar      1 <0>        -0.0904
     11 S1          5.1863    0.2843   -0.0475 S.3       1 <0>        -0.0801
     12 C11         6.4647   -1.0025   -0.0663 C.3       1 <0>        -0.0651
     13 C12         7.8267   -0.3575   -0.0767 C.2       1 <0>        -0.1040
     14 C13         8.5418   -0.0022   -1.1531 C.2       1 <0>         0.0504
     15 O1          9.7107    0.5462   -0.7708 O.3       1 <0>        -0.1429
     16 C14         9.8131    0.5746    0.5684 C.ar      1 <0>         0.3283
     17 C15         8.6343    0.0140    1.0878 C.ar      1 <0>        -0.2570
     18 C16         8.4790   -0.0733    2.4784 C.ar      1 <0>         0.5808
     19 N1          9.4579    0.3832    3.2540 N.ar      1 <0>        -0.5746
     20 C17        10.5555    0.9088    2.7258 C.ar      1 <0>         0.6990
     21 N2         10.7423    1.0016    1.4193 N.ar      1 <0>        -0.5518
     22 N3         11.5474    1.3707    3.5745 N.pl3     1 <0>        -0.7808
     23 N4          7.3350   -0.6207    3.0302 N.pl3     1 <0>        -0.7643
     24 H1         -0.9633    1.8760    0.0259 H         1 <0>         0.1302
     25 H2          1.1265    3.1692    0.0083 H         1 <0>         0.1286
     26 H3          3.2889    2.0466   -0.0196 H         1 <0>         0.1269
     27 H4         -0.9241   -0.5595    0.0082 H         1 <0>         0.1342
     28 H5          0.3770   -2.6646   -0.0152 H         1 <0>         0.1345
     29 H6          2.5295   -3.7988   -0.0429 H         1 <0>         0.1309
     30 H7          4.6285   -2.5236   -0.0561 H         1 <0>         0.1218
     31 H8          6.3651   -1.6266    0.8218 H         1 <0>         0.0995
     32 H9          6.3475   -1.6182   -0.9580 H         1 <0>         0.1243
     33 H10         8.2268   -0.1364   -2.1774 H         1 <0>         0.2468
     34 H11        11.4320    1.3066    4.5355 H         1 <0>         0.4500
     35 H12        12.3575    1.7584    3.2081 H         1 <0>         0.4332
     36 H13         6.6280   -0.9499    2.4535 H         1 <0>         0.4293
     37 H14         7.2397   -0.6754    3.9940 H         1 <0>         0.4328
     38 H15        11.5609    1.3948    1.0783 H         1 <0>         0.4441
@<TRIPOS>BOND
     1    1    6 ar
     2    1    2 ar
     3    1   24 1
     4    2    3 ar
     5    2   25 1
     6    3    4 ar
     7    3   26 1
     8    4   10 ar
     9    4    5 ar
    10    5    6 ar
    11    5    7 ar
    12    6   27 1
    13    7    8 ar
    14    7   28 1
    15    8    9 ar
    16    8   29 1
    17    9   10 ar
    18    9   30 1
    19   10   11 1
    20   11   12 1
    21   12   13 1
    22   12   31 1
    23   12   32 1
    24   13   17 1
    25   13   14 2
    26   14   15 1
    27   14   33 1
    28   15   16 1
    29   16   21 ar
    30   16   17 ar
    31   17   18 ar
    32   18   19 ar
    33   18   23 1
    34   19   20 ar
    35   20   21 ar
    36   20   22 1
    37   21   38 1
    38   22   34 1
    39   22   35 1
    40   23   36 1
    41   23   37 1
@<TRIPOS>MOLECULE
CHEMBL283515__1
   37    40     0     0     0
SMALL
USER_CHARGES

@<TRIPOS>ATOM
      1 C1         -0.0164    1.3569    0.0095 C.ar      1 <0>        -0.1105
      2 C2          1.1684    2.0901    0.0021 C.ar      1 <0>        -0.1112
      3 C3          2.3785    1.4657   -0.0133 C.ar      1 <0>        -0.1036
      4 C4          2.4368    0.0637   -0.0213 C.ar      1 <0>        -0.0317
      5 C5          1.2329   -0.6830   -0.0134 C.ar      1 <0>        -0.0380
      6 C6          0.0021   -0.0041    0.0020 C.ar      1 <0>        -0.1071
      7 C7          1.2896   -2.0871   -0.0215 C.ar      1 <0>        -0.1074
      8 C8          2.4959   -2.7194   -0.0368 C.ar      1 <0>        -0.0996
      9 C9          3.6852   -1.9980   -0.0443 C.ar      1 <0>        -0.1319
     10 C10         3.6731   -0.6182   -0.0368 C.ar      1 <0>        -0.0798
     11 S1          5.1863    0.2843   -0.0475 S.3       1 <0>        -0.0849
     12 C11         6.4647   -1.0025   -0.0663 C.3       1 <0>        -0.0438
     13 C12         7.8267   -0.3575   -0.0767 C.2       1 <0>        -0.1268
     14 C13         8.5418   -0.0022   -1.1531 C.2       1 <0>         0.0171
     15 O1          9.7107    0.5462   -0.7708 O.3       1 <0>        -0.1728
     16 C14         9.8131    0.5746    0.5684 C.ar      1 <0>         0.3723
     17 C15         8.6343    0.0140    1.0878 C.ar      1 <0>        -0.3306
     18 C16         8.4790   -0.0733    2.4784 C.ar      1 <0>         0.5364
     19 N1          9.4579    0.3832    3.2540 N.ar      1 <0>        -0.6284
     20 C17        10.5555    0.9088    2.7258 C.ar      1 <0>         0.6394
     21 N2         10.7423    1.0016    1.4193 N.ar      1 <0>        -0.5971
     22 N3         11.5474    1.3707    3.5745 N.pl3     1 <0>        -0.8114
     23 N4          7.3350   -0.6207    3.0302 N.pl3     1 <0>        -0.8211
     24 H1         -0.9633    1.8760    0.0259 H         1 <0>         0.1262
     25 H2          1.1265    3.1692    0.0083 H         1 <0>         0.1262
     26 H3          3.2889    2.0466   -0.0196 H         1 <0>         0.1293
     27 H4         -0.9241   -0.5595    0.0082 H         1 <0>         0.1303
     28 H5          0.3770   -2.6646   -0.0152 H         1 <0>         0.1301
     29 H6          2.5295   -3.7988   -0.0429 H         1 <0>         0.1275
     30 H7          4.6285   -2.5236   -0.0561 H         1 <0>         0.1232
     31 H8          6.3651   -1.6266    0.8218 H         1 <0>         0.0932
     32 H9          6.3475   -1.6182   -0.9580 H         1 <0>         0.1079
     33 H10         8.2268   -0.1364   -2.1774 H         1 <0>         0.2195
     34 H11        11.4320    1.3066    4.5355 H         1 <0>         0.4186
     35 H12        12.3575    1.7584    3.2081 H         1 <0>         0.4181
     36 H13         6.6280   -0.9499    2.4535 H         1 <0>         0.4107
     37 H14         7.2397   -0.6754    3.9940 H         1 <0>         0.4115
@<TRIPOS>BOND
     1    1    6 ar
     2    1    2 ar
     3    1   24 1
     4    2    3 ar
     5    2   25 1
     6    3    4 ar
     7    3   26 1
     8    4   10 ar
     9    4    5 ar
    10    5    6 ar
    11    5    7 ar
    12    6   27 1
    13    7    8 ar
    14    7   28 1
    15    8    9 ar
    16    8   29 1
    17    9   10 ar
    18    9   30 1
    19   10   11 1
    20   11   12 1
    21   12   13 1
    22   12   31 1
    23   12   32 1
    24   13   17 1
    25   13   14 2
    26   14   15 1
    27   14   33 1
    28   15   16 1
    29   16   21 ar
    30   16   17 ar
    31   17   18 ar
    32   18   19 ar
    33   18   23 1
    34   19   20 ar
    35   20   21 ar
    36   20   22 1
    37   22   34 1
    38   22   35 1
    39   23   36 1
    40   23   37 1
@<TRIPOS>MOLECULE
CHEMBL299927
   55    58     0     0     0
SMALL
USER_CHARGES

@<TRIPOS>ATOM
      1 C1          1.9381   -4.5322   -3.4452 C.3       1 <0>         0.0261
      2 O1          1.2959   -3.9671   -2.3006 O.3       1 <0>        -0.2976
      3 C2          1.2599   -2.6100   -2.2199 C.ar      1 <0>         0.1953
      4 C3          1.8259   -1.8406   -3.2246 C.ar      1 <0>        -0.3120
      5 C4          1.7893   -0.4553   -3.1424 C.ar      1 <0>         0.2840
      6 C5          1.1864    0.1606   -2.0540 C.ar      1 <0>        -0.3081
      7 C6          0.6200   -0.6075   -1.0486 C.ar      1 <0>         0.1962
      8 C7          0.6508   -1.9943   -1.1332 C.ar      1 <0>        -0.0205
      9 O2          0.0896   -2.7495   -0.1486 O.3       1 <0>        -0.3101
     10 C8          0.9311   -3.1171    0.9463 C.3       1 <0>         0.0331
     11 O3          0.0295   -0.0041    0.0174 O.3       1 <0>        -0.2977
     12 C9          0.0291    1.4248    0.0360 C.3       1 <0>         0.0254
     13 N1          2.3607    0.3206   -4.1567 N.pl3     1 <0>        -0.6272
     14 C10         2.2305    1.7852   -4.1517 C.3       1 <0>         0.1189
     15 C11         1.6202    2.2210   -5.4857 C.3       1 <0>        -0.1363
     16 C12         2.4767    1.6982   -6.6438 C.3       1 <0>        -0.0140
     17 C13         1.8288    2.1181   -7.9392 C.ar      1 <0>        -0.3125
     18 C14         2.0546    3.3960   -8.4427 C.ar      1 <0>         0.5468
     19 N2          1.4699    3.7509   -9.5851 N.ar      1 <0>        -0.5895
     20 C15         0.6847    2.9054  -10.2355 C.ar      1 <0>         0.6830
     21 N3          0.4506    1.6824   -9.7846 N.ar      1 <0>        -0.6025
     22 C16         1.0047    1.2586   -8.6488 C.ar      1 <0>         0.5098
     23 N4          0.7556   -0.0313   -8.2035 N.pl3     1 <0>        -0.6967
     24 C17         1.1570   -0.4065   -6.8389 C.3       1 <0>         0.1207
     25 C18         2.5509    0.1734   -6.5904 C.3       1 <0>        -0.1192
     26 C19         3.1124   -0.3049   -5.2525 C.3       1 <0>         0.1294
     27 N5          0.0923    3.3113  -11.4184 N.pl3     1 <0>        -0.7944
     28 N6          2.8746    4.2850   -7.7654 N.pl3     1 <0>        -0.7882
     29 H1          1.4288   -4.1985   -4.3493 H         1 <0>         0.0540
     30 H2          2.9788   -4.2094   -3.4743 H         1 <0>         0.0568
     31 H3          1.8965   -5.6197   -3.3852 H         1 <0>         0.1049
     32 H4          2.2957   -2.3190   -4.0712 H         1 <0>         0.1340
     33 H5          1.1589    1.2384   -1.9904 H         1 <0>         0.1356
     34 H6          1.7755   -3.6987    0.5764 H         1 <0>         0.0427
     35 H7          1.2981   -2.2175    1.4404 H         1 <0>         0.0429
     36 H8          0.3615   -3.7155    1.6574 H         1 <0>         0.0924
     37 H9         -0.4717    1.7763    0.9381 H         1 <0>         0.1054
     38 H10         1.0566    1.7885    0.0257 H         1 <0>         0.0572
     39 H11        -0.4977    1.7995   -0.8415 H         1 <0>         0.0559
     40 H12         1.5804    2.0930   -3.3328 H         1 <0>         0.0918
     41 H13         3.2135    2.2406   -4.0316 H         1 <0>         0.0716
     42 H14         0.6108    1.8186   -5.5711 H         1 <0>         0.0743
     43 H15         1.5800    3.3095   -5.5274 H         1 <0>         0.0795
     44 H16         3.4809    2.1163   -6.5743 H         1 <0>         0.0990
     45 H17         0.3224   -0.6768   -8.7837 H         1 <0>         0.4224
     46 H18         0.4508    0.0069   -6.1188 H         1 <0>         0.0946
     47 H19         1.1865   -1.4923   -6.7474 H         1 <0>         0.1100
     48 H20         3.2196   -0.1724   -7.3787 H         1 <0>         0.0967
     49 H21         4.1636   -0.0268   -5.1766 H         1 <0>         0.0793
     50 H22         3.0184   -1.3887   -5.1846 H         1 <0>         0.0937
     51 H23         0.2545    4.2044  -11.7606 H         1 <0>         0.4453
     52 H24        -0.4851    2.7028  -11.9055 H         1 <0>         0.4283
     53 H25         3.2964    4.0185   -6.9336 H         1 <0>         0.4275
     54 H26         3.0266    5.1737   -8.1233 H         1 <0>         0.4263
     55 H27        -0.1303    1.0890  -10.2859 H         1 <0>         0.4358
@<TRIPOS>BOND
     1    1    2 1
     2    1   29 1
     3    1   30 1
     4    1   31 1
     5    2    3 1
     6    3    8 ar
     7    3    4 ar
     8    4    5 ar
     9    4   32 1
    10    5    6 ar
    11    5   13 1
    12    6    7 ar
    13    6   33 1
    14    7    8 ar
    15    7   11 1
    16    8    9 1
    17    9   10 1
    18   10   34 1
    19   10   35 1
    20   10   36 1
    21   11   12 1
    22   12   37 1
    23   12   38 1
    24   12   39 1
    25   13   26 1
    26   13   14 1
    27   14   15 1
    28   14   40 1
    29   14   41 1
    30   15   16 1
    31   15   42 1
    32   15   43 1
    33   16   25 1
    34   16   17 1
    35   16   44 1
    36   17   22 ar
    37   17   18 ar
    38   18   19 ar
    39   18   28 1
    40   19   20 ar
    41   20   21 ar
    42   20   27 1
    43   21   22 ar
    44   21   55 1
    45   22   23 1
    46   23   24 1
    47   23   45 1
    48   24   25 1
    49   24   46 1
    50   24   47 1
    51   25   26 1
    52   25   48 1
    53   26   49 1
    54   26   50 1
    55   27   51 1
    56   27   52 1
    57   28   53 1
    58   28   54 1
@<TRIPOS>MOLECULE
CHEMBL299927__1
   54    57     0     0     0
SMALL
USER_CHARGES

@<TRIPOS>ATOM
      1 C1          1.9381   -4.5322   -3.4452 C.3       1 <0>         0.0257
      2 O1          1.2959   -3.9671   -2.3006 O.3       1 <0>        -0.3006
      3 C2          1.2599   -2.6100   -2.2199 C.ar      1 <0>         0.1954
      4 C3          1.8259   -1.8406   -3.2246 C.ar      1 <0>        -0.3129
      5 C4          1.7893   -0.4553   -3.1424 C.ar      1 <0>         0.2930
      6 C5          1.1864    0.1606   -2.0540 C.ar      1 <0>        -0.3113
      7 C6          0.6200   -0.6075   -1.0486 C.ar      1 <0>         0.1953
      8 C7          0.6508   -1.9943   -1.1332 C.ar      1 <0>        -0.0296
      9 O2          0.0896   -2.7495   -0.1486 O.3       1 <0>        -0.3095
     10 C8          0.9311   -3.1171    0.9463 C.3       1 <0>         0.0333
     11 O3          0.0295   -0.0041    0.0174 O.3       1 <0>        -0.3008
     12 C9          0.0291    1.4248    0.0360 C.3       1 <0>         0.0257
     13 N1          2.3607    0.3206   -4.1567 N.pl3     1 <0>        -0.6203
     14 C10         2.2305    1.7852   -4.1517 C.3       1 <0>         0.1196
     15 C11         1.6202    2.2210   -5.4857 C.3       1 <0>        -0.1318
     16 C12         2.4767    1.6982   -6.6438 C.3       1 <0>        -0.0007
     17 C13         1.8288    2.1181   -7.9392 C.ar      1 <0>        -0.3646
     18 C14         2.0546    3.3960   -8.4427 C.ar      1 <0>         0.5039
     19 N2          1.4699    3.7509   -9.5851 N.ar      1 <0>        -0.6536
     20 C15         0.6847    2.9054  -10.2355 C.ar      1 <0>         0.6340
     21 N3          0.4506    1.6824   -9.7846 N.ar      1 <0>        -0.6530
     22 C16         1.0047    1.2586   -8.6488 C.ar      1 <0>         0.5030
     23 N4          0.7556   -0.0313   -8.2035 N.pl3     1 <0>        -0.7163
     24 C17         1.1570   -0.4065   -6.8389 C.3       1 <0>         0.1359
     25 C18         2.5509    0.1734   -6.5904 C.3       1 <0>        -0.1162
     26 C19         3.1124   -0.3049   -5.2525 C.3       1 <0>         0.1295
     27 N5          0.0923    3.3113  -11.4184 N.pl3     1 <0>        -0.8223
     28 N6          2.8746    4.2850   -7.7654 N.pl3     1 <0>        -0.8375
     29 H1          1.4288   -4.1985   -4.3493 H         1 <0>         0.0566
     30 H2          2.9788   -4.2094   -3.4743 H         1 <0>         0.0560
     31 H3          1.8965   -5.6197   -3.3852 H         1 <0>         0.1021
     32 H4          2.2957   -2.3190   -4.0712 H         1 <0>         0.1350
     33 H5          1.1589    1.2384   -1.9904 H         1 <0>         0.1351
     34 H6          1.7755   -3.6987    0.5764 H         1 <0>         0.0409
     35 H7          1.2981   -2.2175    1.4404 H         1 <0>         0.0409
     36 H8          0.3615   -3.7155    1.6574 H         1 <0>         0.0886
     37 H9          1.0566    1.7885    0.0257 H         1 <0>         0.0562
     38 H10        -0.4977    1.7995   -0.8415 H         1 <0>         0.0569
     39 H11        -0.4717    1.7763    0.9381 H         1 <0>         0.1022
     40 H12         1.5804    2.0930   -3.3328 H         1 <0>         0.0837
     41 H13         3.2135    2.2406   -4.0316 H         1 <0>         0.0665
     42 H14         0.6108    1.8186   -5.5711 H         1 <0>         0.0697
     43 H15         1.5800    3.3095   -5.5274 H         1 <0>         0.0734
     44 H16         3.4809    2.1163   -6.5743 H         1 <0>         0.0749
     45 H17         0.3224   -0.6768   -8.7837 H         1 <0>         0.4089
     46 H18         0.4508    0.0069   -6.1188 H         1 <0>         0.0696
     47 H19         1.1865   -1.4923   -6.7474 H         1 <0>         0.0838
     48 H20         3.2196   -0.1724   -7.3787 H         1 <0>         0.0865
     49 H21         4.1636   -0.0268   -5.1766 H         1 <0>         0.0713
     50 H22         3.0184   -1.3887   -5.1846 H         1 <0>         0.0863
     51 H23         0.2545    4.2044  -11.7606 H         1 <0>         0.4132
     52 H24        -0.4851    2.7028  -11.9055 H         1 <0>         0.4134
     53 H25         3.2964    4.0185   -6.9336 H         1 <0>         0.4088
     54 H26         3.0266    5.1737   -8.1233 H         1 <0>         0.4060
@<TRIPOS>BOND
     1    1    2 1
     2    1   29 1
     3    1   30 1
     4    1   31 1
     5    2    3 1
     6    3    8 ar
     7    3    4 ar
     8    4    5 ar
     9    4   32 1
    10    5    6 ar
    11    5   13 1
    12    6    7 ar
    13    6   33 1
    14    7    8 ar
    15    7   11 1
    16    8    9 1
    17    9   10 1
    18   10   34 1
    19   10   35 1
    20   10   36 1
    21   11   12 1
    22   12   37 1
    23   12   38 1
    24   12   39 1
    25   13   26 1
    26   13   14 1
    27   14   15 1
    28   14   40 1
    29   14   41 1
    30   15   16 1
    31   15   42 1
    32   15   43 1
    33   16   25 1
    34   16   17 1
    35   16   44 1
    36   17   22 ar
    37   17   18 ar
    38   18   19 ar
    39   18   28 1
    40   19   20 ar
    41   20   21 ar
    42   20   27 1
    43   21   22 ar
    44   22   23 1
    45   23   24 1
    46   23   45 1
    47   24   25 1
    48   24   46 1
    49   24   47 1
    50   25   26 1
    51   25   48 1
    52   26   49 1
    53   26   50 1
    54   27   51 1
    55   27   52 1
    56   28   53 1
    57   28   54 1
@<TRIPOS>MOLECULE
CHEMBL299927__2
   55    58     0     0     0
SMALL
USER_CHARGES

@<TRIPOS>ATOM
      1 C1          2.0665    1.4466    0.1935 C.3       1 <0>         0.0254
      2 O1          2.4123    0.0602    0.1740 O.3       1 <0>        -0.2978
      3 C2          2.9280   -0.4313   -0.9843 C.ar      1 <0>         0.1958
      4 C3          3.1022    0.4054   -2.0757 C.ar      1 <0>        -0.3077
      5 C4          3.6286   -0.0962   -3.2583 C.ar      1 <0>         0.2828
      6 C5          3.9806   -1.4360   -3.3491 C.ar      1 <0>        -0.3106
      7 C6          3.8070   -2.2740   -2.2585 C.ar      1 <0>         0.1946
      8 C7          3.2859   -1.7712   -1.0724 C.ar      1 <0>        -0.0205
      9 O2          3.1203   -2.5926    0.0012 O.3       1 <0>        -0.3089
     10 C8          1.8675   -3.2710    0.1119 C.3       1 <0>         0.0337
     11 O3          4.1519   -3.5864   -2.3475 O.3       1 <0>        -0.2978
     12 C9          4.6870   -4.0334   -3.5949 C.3       1 <0>         0.0261
     13 N1          3.8041    0.7489   -4.3594 N.pl3     1 <0>        -0.6249
     14 C10         3.3239    2.1359   -4.3157 C.3       1 <0>         0.1183
     15 C11         2.4457    2.4067   -5.5438 C.3       1 <0>        -0.1516
     16 C12         3.2302    2.0344   -6.8009 C.3       1 <0>        -0.0189
     17 C13         2.4591    2.3661   -8.0431 C.ar      1 <0>        -0.2814
     18 C14         1.6622    3.5067   -8.0911 C.ar      1 <0>         0.5455
     19 N2          0.9919    3.7800   -9.2082 N.ar      1 <0>        -0.5738
     20 C15         1.0782    2.9833  -10.2629 C.ar      1 <0>         0.6711
     21 N3          1.8249    1.8897  -10.2509 N.ar      1 <0>        -0.5936
     22 C16         2.5208    1.5521   -9.1664 C.ar      1 <0>         0.5044
     23 N4          3.2838    0.3939   -9.1709 N.pl3     1 <0>        -0.6934
     24 C17         4.2414    0.1553   -8.0801 C.3       1 <0>         0.1195
     25 C18         3.5556    0.5394   -6.7673 C.3       1 <0>        -0.1229
     26 C19         4.4776    0.2606   -5.5733 C.3       1 <0>         0.1314
     27 N5          0.3688    3.3021  -11.4075 N.pl3     1 <0>        -0.7934
     28 N6          1.5678    4.3452   -6.9914 N.pl3     1 <0>        -0.8273
     29 H1          2.9545    2.0454   -0.0091 H         1 <0>         0.0581
     30 H2          1.3134    1.6440   -0.5694 H         1 <0>         0.0549
     31 H3          1.6679    1.7080    1.1737 H         1 <0>         0.1052
     32 H4          2.8279    1.4477   -2.0061 H         1 <0>         0.1361
     33 H5          4.3894   -1.8257   -4.2696 H         1 <0>         0.1339
     34 H6          1.0623   -2.5391    0.1761 H         1 <0>         0.0419
     35 H7          1.7167   -3.9009   -0.7648 H         1 <0>         0.0415
     36 H8          1.8677   -3.8905    1.0087 H         1 <0>         0.0924
     37 H9          4.9194   -5.0964   -3.5305 H         1 <0>         0.1047
     38 H10         3.9538   -3.8690   -4.3845 H         1 <0>         0.0534
     39 H11         5.5958   -3.4758   -3.8211 H         1 <0>         0.0574
     40 H12         2.7390    2.2901   -3.4090 H         1 <0>         0.0908
     41 H13         4.1755    2.8162   -4.3202 H         1 <0>         0.0686
     42 H14         1.5402    1.8027   -5.4859 H         1 <0>         0.0753
     43 H15         2.1810    3.4635   -5.5779 H         1 <0>         0.1060
     44 H16         4.1628    2.5984   -6.8151 H         1 <0>         0.0935
     45 H17         3.1865   -0.2533   -9.8868 H         1 <0>         0.4231
     46 H18         4.5203   -0.8982   -8.0570 H         1 <0>         0.1153
     47 H19         5.1294    0.7702   -8.2269 H         1 <0>         0.0950
     48 H20         2.6331   -0.0310   -6.6587 H         1 <0>         0.0946
     49 H21         5.4242    0.7847   -5.7052 H         1 <0>         0.0753
     50 H22         4.6582   -0.8110   -5.4882 H         1 <0>         0.0939
     51 H23        -0.1823    4.0999  -11.4302 H         1 <0>         0.4460
     52 H24         0.4228    2.7276  -12.1873 H         1 <0>         0.4281
     53 H25         2.3710    4.6287   -6.5273 H         1 <0>         0.4302
     54 H26         0.6986    4.6486   -6.6860 H         1 <0>         0.4241
     55 H27         1.8657    1.3283  -11.0409 H         1 <0>         0.4365
@<TRIPOS>BOND
     1    1    2 1
     2    1   29 1
     3    1   30 1
     4    1   31 1
     5    2    3 1
     6    3    8 ar
     7    3    4 ar
     8    4    5 ar
     9    4   32 1
    10    5    6 ar
    11    5   13 1
    12    6    7 ar
    13    6   33 1
    14    7    8 ar
    15    7   11 1
    16    8    9 1
    17    9   10 1
    18   10   34 1
    19   10   35 1
    20   10   36 1
    21   11   12 1
    22   12   37 1
    23   12   38 1
    24   12   39 1
    25   13   26 1
    26   13   14 1
    27   14   15 1
    28   14   40 1
    29   14   41 1
    30   15   16 1
    31   15   42 1
    32   15   43 1
    33   16   25 1
    34   16   17 1
    35   16   44 1
    36   17   22 ar
    37   17   18 ar
    38   18   19 ar
    39   18   28 1
    40   19   20 ar
    41   20   21 ar
    42   20   27 1
    43   21   22 ar
    44   21   55 1
    45   22   23 1
    46   23   24 1
    47   23   45 1
    48   24   25 1
    49   24   46 1
    50   24   47 1
    51   25   26 1
    52   25   48 1
    53   26   49 1
    54   26   50 1
    55   27   51 1
    56   27   52 1
    57   28   53 1
    58   28   54 1
@<TRIPOS>MOLECULE
CHEMBL299927__3
   54    57     0     0     0
SMALL
USER_CHARGES

@<TRIPOS>ATOM
      1 C1          2.0665    1.4466    0.1935 C.3       1 <0>         0.0257
      2 O1          2.4123    0.0602    0.1740 O.3       1 <0>        -0.3008
      3 C2          2.9280   -0.4313   -0.9843 C.ar      1 <0>         0.1950
      4 C3          3.1022    0.4054   -2.0757 C.ar      1 <0>        -0.3114
      5 C4          3.6286   -0.0962   -3.2583 C.ar      1 <0>         0.2911
      6 C5          3.9806   -1.4360   -3.3491 C.ar      1 <0>        -0.3129
      7 C6          3.8070   -2.2740   -2.2585 C.ar      1 <0>         0.1949
      8 C7          3.2859   -1.7712   -1.0724 C.ar      1 <0>        -0.0301
      9 O2          3.1203   -2.5926    0.0012 O.3       1 <0>        -0.3094
     10 C8          1.8675   -3.2710    0.1119 C.3       1 <0>         0.0333
     11 O3          4.1519   -3.5864   -2.3475 O.3       1 <0>        -0.3008
     12 C9          4.6870   -4.0334   -3.5949 C.3       1 <0>         0.0257
     13 N1          3.8041    0.7489   -4.3594 N.pl3     1 <0>        -0.6197
     14 C10         3.3239    2.1359   -4.3157 C.3       1 <0>         0.1180
     15 C11         2.4457    2.4067   -5.5438 C.3       1 <0>        -0.1506
     16 C12         3.2302    2.0344   -6.8009 C.3       1 <0>        -0.0048
     17 C13         2.4591    2.3661   -8.0431 C.ar      1 <0>        -0.3300
     18 C14         1.6622    3.5067   -8.0911 C.ar      1 <0>         0.4918
     19 N2          0.9919    3.7800   -9.2082 N.ar      1 <0>        -0.6353
     20 C15         1.0782    2.9833  -10.2629 C.ar      1 <0>         0.6224
     21 N3          1.8249    1.8897  -10.2509 N.ar      1 <0>        -0.6406
     22 C16         2.5208    1.5521   -9.1664 C.ar      1 <0>         0.4922
     23 N4          3.2838    0.3939   -9.1709 N.pl3     1 <0>        -0.7153
     24 C17         4.2414    0.1553   -8.0801 C.3       1 <0>         0.1335
     25 C18         3.5556    0.5394   -6.7673 C.3       1 <0>        -0.1178
     26 C19         4.4776    0.2606   -5.5733 C.3       1 <0>         0.1304
     27 N5          0.3688    3.3021  -11.4075 N.pl3     1 <0>        -0.8224
     28 N6          1.5678    4.3452   -6.9914 N.pl3     1 <0>        -0.8616
     29 H1          2.9545    2.0454   -0.0091 H         1 <0>         0.0574
     30 H2          1.3134    1.6440   -0.5694 H         1 <0>         0.0556
     31 H3          1.6679    1.7080    1.1737 H         1 <0>         0.1022
     32 H4          2.8279    1.4477   -2.0061 H         1 <0>         0.1357
     33 H5          4.3894   -1.8257   -4.2696 H         1 <0>         0.1351
     34 H6          1.0623   -2.5391    0.1761 H         1 <0>         0.0407
     35 H7          1.7167   -3.9009   -0.7648 H         1 <0>         0.0407
     36 H8          1.8677   -3.8905    1.0087 H         1 <0>         0.0887
     37 H9          3.9538   -3.8690   -4.3845 H         1 <0>         0.0554
     38 H10         5.5958   -3.4758   -3.8211 H         1 <0>         0.0572
     39 H11         4.9194   -5.0964   -3.5305 H         1 <0>         0.1021
     40 H12         2.7390    2.2901   -3.4090 H         1 <0>         0.0824
     41 H13         4.1755    2.8162   -4.3202 H         1 <0>         0.0633
     42 H14         1.5402    1.8027   -5.4859 H         1 <0>         0.0660
     43 H15         2.1810    3.4635   -5.5779 H         1 <0>         0.1092
     44 H16         4.1628    2.5984   -6.8151 H         1 <0>         0.0678
     45 H17         3.1865   -0.2533   -9.8868 H         1 <0>         0.4096
     46 H18         4.5203   -0.8982   -8.0570 H         1 <0>         0.0896
     47 H19         5.1294    0.7702   -8.2269 H         1 <0>         0.0685
     48 H20         2.6331   -0.0310   -6.6587 H         1 <0>         0.0844
     49 H21         5.4242    0.7847   -5.7052 H         1 <0>         0.0700
     50 H22         4.6582   -0.8110   -5.4882 H         1 <0>         0.0863
     51 H23        -0.1823    4.0999  -11.4302 H         1 <0>         0.4138
     52 H24         0.4228    2.7276  -12.1873 H         1 <0>         0.4133
     53 H25         2.3710    4.6287   -6.5273 H         1 <0>         0.4103
     54 H26         0.6986    4.6486   -6.6860 H         1 <0>         0.4043
@<TRIPOS>BOND
     1    1    2 1
     2    1   29 1
     3    1   30 1
     4    1   31 1
     5    2    3 1
     6    3    8 ar
     7    3    4 ar
     8    4    5 ar
     9    4   32 1
    10    5    6 ar
    11    5   13 1
    12    6    7 ar
    13    6   33 1
    14    7    8 ar
    15    7   11 1
    16    8    9 1
    17    9   10 1
    18   10   34 1
    19   10   35 1
    20   10   36 1
    21   11   12 1
    22   12   37 1
    23   12   38 1
    24   12   39 1
    25   13   26 1
    26   13   14 1
    27   14   15 1
    28   14   40 1
    29   14   41 1
    30   15   16 1
    31   15   42 1
    32   15   43 1
    33   16   25 1
    34   16   17 1
    35   16   44 1
    36   17   22 ar
    37   17   18 ar
    38   18   19 ar
    39   18   28 1
    40   19   20 ar
    41   20   21 ar
    42   20   27 1
    43   21   22 ar
    44   22   23 1
    45   23   24 1
    46   23   45 1
    47   24   25 1
    48   24   46 1
    49   24   47 1
    50   25   26 1
    51   25   48 1
    52   26   49 1
    53   26   50 1
    54   27   51 1
    55   27   52 1
    56   28   53 1
    57   28   54 1
@<TRIPOS>MOLECULE
CHEMBL299927__4
   55    58     0     0     0
SMALL
USER_CHARGES

@<TRIPOS>ATOM
      1 C1          1.4434   -4.4875   -4.5610 C.3       1 <0>         0.0259
      2 O1          0.7443   -4.0042   -3.4123 O.3       1 <0>        -0.2977
      3 C2          0.7607   -2.6612   -3.1994 C.ar      1 <0>         0.1949
      4 C3          1.4308   -1.8276   -4.0812 C.ar      1 <0>        -0.3100
      5 C4          1.4476   -0.4565   -3.8640 C.ar      1 <0>         0.2827
      6 C5          0.7939    0.0808   -2.7634 C.ar      1 <0>        -0.3082
      7 C6          0.1234   -0.7516   -1.8807 C.ar      1 <0>         0.1954
      8 C7          0.1009   -2.1235   -2.1008 C.ar      1 <0>        -0.0205
      9 O2         -0.5624   -2.9413   -1.2371 O.3       1 <0>        -0.3089
     10 C8          0.1805   -3.4542   -0.1294 C.3       1 <0>         0.0337
     11 O3         -0.5169   -0.2251   -0.8026 O.3       1 <0>        -0.2978
     12 C9         -0.4574    1.1935   -0.6417 C.3       1 <0>         0.0255
     13 N1          2.1242    0.3842   -4.7545 N.pl3     1 <0>        -0.6246
     14 C10         2.0491    1.8428   -4.6021 C.3       1 <0>         0.1178
     15 C11         3.4687    2.4230   -4.5770 C.3       1 <0>        -0.1522
     16 C12         4.2188    1.9412   -5.8178 C.3       1 <0>        -0.0188
     17 C13         5.5853    2.5523   -5.9004 C.ar      1 <0>        -0.2812
     18 C14         5.7933    3.8653   -5.4871 C.ar      1 <0>         0.5455
     19 N2          7.0158    4.3847   -5.5758 N.ar      1 <0>        -0.5737
     20 C15         8.0240    3.6685   -6.0504 C.ar      1 <0>         0.6711
     21 N3          7.8620    2.4165   -6.4503 N.ar      1 <0>        -0.5935
     22 C16         6.6672    1.8308   -6.3876 C.ar      1 <0>         0.5044
     23 N4          6.5238    0.5135   -6.7973 N.pl3     1 <0>        -0.6933
     24 C17         5.1747   -0.0476   -6.9669 C.3       1 <0>         0.1200
     25 C18         4.3264    0.4152   -5.7805 C.3       1 <0>        -0.1230
     26 C19         2.9246   -0.1825   -5.8516 C.3       1 <0>         0.1316
     27 N5          9.2800    4.2438   -6.1300 N.pl3     1 <0>        -0.7934
     28 N6          4.7426    4.6211   -4.9909 N.pl3     1 <0>        -0.8276
     29 H1          1.0161   -4.0433   -5.4600 H         1 <0>         0.0578
     30 H2          2.4963   -4.2156   -4.4866 H         1 <0>         0.0535
     31 H3          1.3511   -5.5724   -4.6127 H         1 <0>         0.1048
     32 H4          1.9401   -2.2449   -4.9373 H         1 <0>         0.1343
     33 H5          0.8081    1.1474   -2.5947 H         1 <0>         0.1360
     34 H6          1.0239   -4.0387   -0.4969 H         1 <0>         0.0415
     35 H7          0.5487   -2.6259    0.4759 H         1 <0>         0.0418
     36 H8         -0.4645   -4.0893    0.4779 H         1 <0>         0.0924
     37 H9         -1.0072    1.4809    0.2546 H         1 <0>         0.1051
     38 H10         0.5827    1.5050   -0.5454 H         1 <0>         0.0547
     39 H11        -0.9024    1.6768   -1.5114 H         1 <0>         0.0579
     40 H12         1.4968    2.2682   -5.4400 H         1 <0>         0.0693
     41 H13         1.5402    2.0855   -3.6693 H         1 <0>         0.0912
     42 H14         3.4186    3.5118   -4.5802 H         1 <0>         0.1061
     43 H15         3.9873    2.0816   -3.6811 H         1 <0>         0.0753
     44 H16         3.6578    2.2339   -6.7054 H         1 <0>         0.0936
     45 H17         7.3063   -0.0328   -6.9707 H         1 <0>         0.4232
     46 H18         4.7379    0.3151   -7.8974 H         1 <0>         0.0951
     47 H19         5.2265   -1.1363   -6.9818 H         1 <0>         0.1154
     48 H20         4.8038    0.1071   -4.8503 H         1 <0>         0.0942
     49 H21         2.9818   -1.2657   -5.7441 H         1 <0>         0.0934
     50 H22         2.4680    0.0695   -6.8087 H         1 <0>         0.0742
     51 H23         9.4132    5.1599   -5.8403 H         1 <0>         0.4460
     52 H24        10.0274    3.7310   -6.4756 H         1 <0>         0.4281
     53 H25         4.8526    5.1236   -4.1686 H         1 <0>         0.4241
     54 H26         3.8974    4.6475   -5.4661 H         1 <0>         0.4302
     55 H27         8.6218    1.9204   -6.7930 H         1 <0>         0.4366
@<TRIPOS>BOND
     1    1    2 1
     2    1   29 1
     3    1   30 1
     4    1   31 1
     5    2    3 1
     6    3    8 ar
     7    3    4 ar
     8    4    5 ar
     9    4   32 1
    10    5    6 ar
    11    5   13 1
    12    6    7 ar
    13    6   33 1
    14    7    8 ar
    15    7   11 1
    16    8    9 1
    17    9   10 1
    18   10   34 1
    19   10   35 1
    20   10   36 1
    21   11   12 1
    22   12   37 1
    23   12   38 1
    24   12   39 1
    25   13   26 1
    26   13   14 1
    27   14   15 1
    28   14   40 1
    29   14   41 1
    30   15   16 1
    31   15   42 1
    32   15   43 1
    33   16   25 1
    34   16   17 1
    35   16   44 1
    36   17   22 ar
    37   17   18 ar
    38   18   19 ar
    39   18   28 1
    40   19   20 ar
    41   20   21 ar
    42   20   27 1
    43   21   22 ar
    44   21   55 1
    45   22   23 1
    46   23   24 1
    47   23   45 1
    48   24   25 1
    49   24   46 1
    50   24   47 1
    51   25   26 1
    52   25   48 1
    53   26   49 1
    54   26   50 1
    55   27   51 1
    56   27   52 1
    57   28   53 1
    58   28   54 1
@<TRIPOS>MOLECULE
CHEMBL299927__5
   54    57     0     0     0
SMALL
USER_CHARGES

@<TRIPOS>ATOM
      1 C1          1.4434   -4.4875   -4.5610 C.3       1 <0>         0.0256
      2 O1          0.7443   -4.0042   -3.4123 O.3       1 <0>        -0.3007
      3 C2          0.7607   -2.6612   -3.1994 C.ar      1 <0>         0.1949
      4 C3          1.4308   -1.8276   -4.0812 C.ar      1 <0>        -0.3126
      5 C4          1.4476   -0.4565   -3.8640 C.ar      1 <0>         0.2911
      6 C5          0.7939    0.0808   -2.7634 C.ar      1 <0>        -0.3116
      7 C6          0.1234   -0.7516   -1.8807 C.ar      1 <0>         0.1949
      8 C7          0.1009   -2.1235   -2.1008 C.ar      1 <0>        -0.0300
      9 O2         -0.5624   -2.9413   -1.2371 O.3       1 <0>        -0.3094
     10 C8          0.1805   -3.4542   -0.1294 C.3       1 <0>         0.0333
     11 O3         -0.5169   -0.2251   -0.8026 O.3       1 <0>        -0.3008
     12 C9         -0.4574    1.1935   -0.6417 C.3       1 <0>         0.0256
     13 N1          2.1242    0.3842   -4.7545 N.pl3     1 <0>        -0.6194
     14 C10         2.0491    1.8428   -4.6021 C.3       1 <0>         0.1174
     15 C11         3.4687    2.4230   -4.5770 C.3       1 <0>        -0.1512
     16 C12         4.2188    1.9412   -5.8178 C.3       1 <0>        -0.0047
     17 C13         5.5853    2.5523   -5.9004 C.ar      1 <0>        -0.3298
     18 C14         5.7933    3.8653   -5.4871 C.ar      1 <0>         0.4917
     19 N2          7.0158    4.3847   -5.5758 N.ar      1 <0>        -0.6352
     20 C15         8.0240    3.6685   -6.0504 C.ar      1 <0>         0.6223
     21 N3          7.8620    2.4165   -6.4503 N.ar      1 <0>        -0.6405
     22 C16         6.6672    1.8308   -6.3876 C.ar      1 <0>         0.4921
     23 N4          6.5238    0.5135   -6.7973 N.pl3     1 <0>        -0.7152
     24 C17         5.1747   -0.0476   -6.9669 C.3       1 <0>         0.1342
     25 C18         4.3264    0.4152   -5.7805 C.3       1 <0>        -0.1183
     26 C19         2.9246   -0.1825   -5.8516 C.3       1 <0>         0.1310
     27 N5          9.2800    4.2438   -6.1300 N.pl3     1 <0>        -0.8224
     28 N6          4.7426    4.6211   -4.9909 N.pl3     1 <0>        -0.8618
     29 H1          1.0161   -4.0433   -5.4600 H         1 <0>         0.0574
     30 H2          2.4963   -4.2156   -4.4866 H         1 <0>         0.0553
     31 H3          1.3511   -5.5724   -4.6127 H         1 <0>         0.1021
     32 H4          1.9401   -2.2449   -4.9373 H         1 <0>         0.1350
     33 H5          0.8081    1.1474   -2.5947 H         1 <0>         0.1360
     34 H6          1.0239   -4.0387   -0.4969 H         1 <0>         0.0406
     35 H7          0.5487   -2.6259    0.4759 H         1 <0>         0.0407
     36 H8         -0.4645   -4.0893    0.4779 H         1 <0>         0.0887
     37 H9          0.5827    1.5050   -0.5454 H         1 <0>         0.0557
     38 H10        -0.9024    1.6768   -1.5114 H         1 <0>         0.0572
     39 H11        -1.0072    1.4809    0.2546 H         1 <0>         0.1022
     40 H12         1.4968    2.2682   -5.4400 H         1 <0>         0.0640
     41 H13         1.5402    2.0855   -3.6693 H         1 <0>         0.0827
     42 H14         3.4186    3.5118   -4.5802 H         1 <0>         0.1092
     43 H15         3.9873    2.0816   -3.6811 H         1 <0>         0.0660
     44 H16         3.6578    2.2339   -6.7054 H         1 <0>         0.0679
     45 H17         7.3063   -0.0328   -6.9707 H         1 <0>         0.4097
     46 H18         4.7379    0.3151   -7.8974 H         1 <0>         0.0686
     47 H19         5.2265   -1.1363   -6.9818 H         1 <0>         0.0897
     48 H20         4.8038    0.1071   -4.8503 H         1 <0>         0.0839
     49 H21         2.9818   -1.2657   -5.7441 H         1 <0>         0.0858
     50 H22         2.4680    0.0695   -6.8087 H         1 <0>         0.0689
     51 H23         9.4132    5.1599   -5.8403 H         1 <0>         0.4139
     52 H24        10.0274    3.7310   -6.4756 H         1 <0>         0.4133
     53 H25         4.8526    5.1236   -4.1686 H         1 <0>         0.4043
     54 H26         3.8974    4.6475   -5.4661 H         1 <0>         0.4103
@<TRIPOS>BOND
     1    1    2 1
     2    1   29 1
     3    1   30 1
     4    1   31 1
     5    2    3 1
     6    3    8 ar
     7    3    4 ar
     8    4    5 ar
     9    4   32 1
    10    5    6 ar
    11    5   13 1
    12    6    7 ar
    13    6   33 1
    14    7    8 ar
    15    7   11 1
    16    8    9 1
    17    9   10 1
    18   10   34 1
    19   10   35 1
    20   10   36 1
    21   11   12 1
    22   12   37 1
    23   12   38 1
    24   12   39 1
    25   13   26 1
    26   13   14 1
    27   14   15 1
    28   14   40 1
    29   14   41 1
    30   15   16 1
    31   15   42 1
    32   15   43 1
    33   16   25 1
    34   16   17 1
    35   16   44 1
    36   17   22 ar
    37   17   18 ar
    38   18   19 ar
    39   18   28 1
    40   19   20 ar
    41   20   21 ar
    42   20   27 1
    43   21   22 ar
    44   22   23 1
    45   23   24 1
    46   23   45 1
    47   24   25 1
    48   24   46 1
    49   24   47 1
    50   25   26 1
    51   25   48 1
    52   26   49 1
    53   26   50 1
    54   27   51 1
    55   27   52 1
    56   28   53 1
    57   28   54 1
@<TRIPOS>MOLECULE
CHEMBL299927__6
   55    58     0     0     0
SMALL
USER_CHARGES

@<TRIPOS>ATOM
      1 C1          0.0257    1.4248    0.0341 C.3       1 <0>         0.0256
      2 O1          0.0307   -0.0041    0.0181 O.3       1 <0>        -0.2977
      3 C2          0.6206   -0.6075   -1.0483 C.ar      1 <0>         0.1958
      4 C3          1.1870    0.1606   -2.0537 C.ar      1 <0>        -0.3088
      5 C4          1.7893   -0.4553   -3.1424 C.ar      1 <0>         0.2837
      6 C5          1.8244   -1.8406   -3.2254 C.ar      1 <0>        -0.3108
      7 C6          1.2585   -2.6100   -2.2207 C.ar      1 <0>         0.1954
      8 C7          0.6609   -1.9943   -1.1276 C.ar      1 <0>        -0.0205
      9 O2          0.1096   -2.7496   -0.1375 O.3       1 <0>        -0.3101
     10 C8         -1.2664   -3.1064   -0.2835 C.3       1 <0>         0.0331
     11 O3          1.2930   -3.9671   -2.3021 O.3       1 <0>        -0.2977
     12 C9          1.9285   -4.5321   -3.4506 C.3       1 <0>         0.0259
     13 N1          2.3607    0.3206   -4.1567 N.pl3     1 <0>        -0.6268
     14 C10         2.2304    1.7852   -4.1517 C.3       1 <0>         0.1186
     15 C11         3.6321    2.3957   -4.2182 C.3       1 <0>        -0.1369
     16 C12         4.3725    1.8628   -5.4494 C.3       1 <0>        -0.0139
     17 C13         5.7576    2.4591   -5.4640 C.ar      1 <0>        -0.3126
     18 C14         5.9556    3.7346   -5.9850 C.ar      1 <0>         0.5468
     19 N2          7.1846    4.2469   -5.9848 N.ar      1 <0>        -0.5895
     20 C15         8.2056    3.5582   -5.4973 C.ar      1 <0>         0.6830
     21 N3          8.0515    2.3420   -4.9963 N.ar      1 <0>        -0.6025
     22 C16         6.8499    1.7660   -4.9662 C.ar      1 <0>         0.5098
     23 N4          6.7155    0.4860   -4.4485 N.pl3     1 <0>        -0.6967
     24 C17         5.3673   -0.0410   -4.1862 C.3       1 <0>         0.1201
     25 C18         4.4817    0.3410   -5.3740 C.3       1 <0>        -0.1188
     26 C19         3.1124   -0.3049   -5.2525 C.3       1 <0>         0.1291
     27 N5          9.4680    4.1250   -5.5121 N.pl3     1 <0>        -0.7944
     28 N6          4.8905    4.4596   -6.4963 N.pl3     1 <0>        -0.7882
     29 H1          1.0519    1.7919    0.0206 H         1 <0>         0.0556
     30 H2         -0.5046    1.7961   -0.8428 H         1 <0>         0.0569
     31 H3         -0.4741    1.7763    0.9367 H         1 <0>         0.1052
     32 H4          1.1594    1.2384   -1.9902 H         1 <0>         0.1353
     33 H5          2.2925   -2.3190   -4.0730 H         1 <0>         0.1346
     34 H6         -1.8729   -2.2021   -0.3341 H         1 <0>         0.0428
     35 H7         -1.3971   -3.6832   -1.1990 H         1 <0>         0.0428
     36 H8         -1.5790   -3.7060    0.5714 H         1 <0>         0.0924
     37 H9          1.8865   -5.6197   -3.3908 H         1 <0>         0.1050
     38 H10         1.4144   -4.1977   -4.3517 H         1 <0>         0.0572
     39 H11         2.9692   -4.2101   -3.4853 H         1 <0>         0.0546
     40 H12         1.6495    2.1049   -5.0169 H         1 <0>         0.0722
     41 H13         1.7333    2.1063   -3.2364 H         1 <0>         0.0919
     42 H14         3.5519    3.4807   -4.2850 H         1 <0>         0.0795
     43 H15         4.1865    2.1290   -3.3184 H         1 <0>         0.0742
     44 H16         3.8327    2.1468   -6.3527 H         1 <0>         0.0991
     45 H17         7.4995   -0.0540   -4.2625 H         1 <0>         0.4224
     46 H18         5.4070   -1.1259   -4.0883 H         1 <0>         0.1107
     47 H19         4.9697    0.3993   -3.2718 H         1 <0>         0.0943
     48 H20         4.9481   -0.0224   -6.2897 H         1 <0>         0.0976
     49 H21         3.2315   -1.3692   -5.0496 H         1 <0>         0.0935
     50 H22         2.5681   -0.1729   -6.1876 H         1 <0>         0.0782
     51 H23         9.5958    5.0149   -5.8762 H         1 <0>         0.4453
     52 H24        10.2250    3.6323   -5.1584 H         1 <0>         0.4283
     53 H25         3.9984    4.0788   -6.4929 H         1 <0>         0.4275
     54 H26         5.0373    5.3478   -6.8575 H         1 <0>         0.4263
     55 H27         8.8211    1.8656   -4.6475 H         1 <0>         0.4358
@<TRIPOS>BOND
     1    1    2 1
     2    1   29 1
     3    1   30 1
     4    1   31 1
     5    2    3 1
     6    3    8 ar
     7    3    4 ar
     8    4    5 ar
     9    4   32 1
    10    5    6 ar
    11    5   13 1
    12    6    7 ar
    13    6   33 1
    14    7    8 ar
    15    7   11 1
    16    8    9 1
    17    9   10 1
    18   10   34 1
    19   10   35 1
    20   10   36 1
    21   11   12 1
    22   12   37 1
    23   12   38 1
    24   12   39 1
    25   13   26 1
    26   13   14 1
    27   14   15 1
    28   14   40 1
    29   14   41 1
    30   15   16 1
    31   15   42 1
    32   15   43 1
    33   16   25 1
    34   16   17 1
    35   16   44 1
    36   17   22 ar
    37   17   18 ar
    38   18   19 ar
    39   18   28 1
    40   19   20 ar
    41   20   21 ar
    42   20   27 1
    43   21   22 ar
    44   21   55 1
    45   22   23 1
    46   23   24 1
    47   23   45 1
    48   24   25 1
    49   24   46 1
    50   24   47 1
    51   25   26 1
    52   25   48 1
    53   26   49 1
    54   26   50 1
    55   27   51 1
    56   27   52 1
    57   28   53 1
    58   28   54 1
@<TRIPOS>MOLECULE
CHEMBL299927__7
   54    57     0     0     0
SMALL
USER_CHARGES

@<TRIPOS>ATOM
      1 C1          0.0257    1.4248    0.0341 C.3       1 <0>         0.0257
      2 O1          0.0307   -0.0041    0.0181 O.3       1 <0>        -0.3007
      3 C2          0.6206   -0.6075   -1.0483 C.ar      1 <0>         0.1953
      4 C3          1.1870    0.1606   -2.0537 C.ar      1 <0>        -0.3115
      5 C4          1.7893   -0.4553   -3.1424 C.ar      1 <0>         0.2930
      6 C5          1.8244   -1.8406   -3.2254 C.ar      1 <0>        -0.3123
      7 C6          1.2585   -2.6100   -2.2207 C.ar      1 <0>         0.1952
      8 C7          0.6609   -1.9943   -1.1276 C.ar      1 <0>        -0.0295
      9 O2          0.1096   -2.7496   -0.1375 O.3       1 <0>        -0.3096
     10 C8         -1.2664   -3.1064   -0.2835 C.3       1 <0>         0.0333
     11 O3          1.2930   -3.9671   -2.3021 O.3       1 <0>        -0.3007
     12 C9          1.9285   -4.5321   -3.4506 C.3       1 <0>         0.0257
     13 N1          2.3607    0.3206   -4.1567 N.pl3     1 <0>        -0.6199
     14 C10         2.2304    1.7852   -4.1517 C.3       1 <0>         0.1192
     15 C11         3.6321    2.3957   -4.2182 C.3       1 <0>        -0.1323
     16 C12         4.3725    1.8628   -5.4494 C.3       1 <0>        -0.0005
     17 C13         5.7576    2.4591   -5.4640 C.ar      1 <0>        -0.3646
     18 C14         5.9556    3.7346   -5.9850 C.ar      1 <0>         0.5039
     19 N2          7.1846    4.2469   -5.9848 N.ar      1 <0>        -0.6536
     20 C15         8.2056    3.5582   -5.4973 C.ar      1 <0>         0.6340
     21 N3          8.0514    2.3424   -4.9955 N.ar      1 <0>        -0.6530
     22 C16         6.8499    1.7660   -4.9662 C.ar      1 <0>         0.5030
     23 N4          6.7155    0.4860   -4.4485 N.pl3     1 <0>        -0.7164
     24 C17         5.3673   -0.0410   -4.1862 C.3       1 <0>         0.1353
     25 C18         4.4817    0.3410   -5.3740 C.3       1 <0>        -0.1162
     26 C19         3.1124   -0.3049   -5.2525 C.3       1 <0>         0.1299
     27 N5          9.4680    4.1250   -5.5121 N.pl3     1 <0>        -0.8224
     28 N6          4.8905    4.4596   -6.4963 N.pl3     1 <0>        -0.8376
     29 H1          1.0519    1.7919    0.0206 H         1 <0>         0.0570
     30 H2         -0.5046    1.7961   -0.8428 H         1 <0>         0.0560
     31 H3         -0.4741    1.7763    0.9367 H         1 <0>         0.1022
     32 H4          1.1594    1.2384   -1.9902 H         1 <0>         0.1353
     33 H5          2.2925   -2.3190   -4.0730 H         1 <0>         0.1350
     34 H6         -1.8729   -2.2021   -0.3341 H         1 <0>         0.0408
     35 H7         -1.3971   -3.6832   -1.1990 H         1 <0>         0.0410
     36 H8         -1.5790   -3.7060    0.5714 H         1 <0>         0.0886
     37 H9          1.4144   -4.1977   -4.3517 H         1 <0>         0.0562
     38 H10         2.9692   -4.2101   -3.4853 H         1 <0>         0.0567
     39 H11         1.8865   -5.6197   -3.3908 H         1 <0>         0.1021
     40 H12         1.6495    2.1049   -5.0169 H         1 <0>         0.0671
     41 H13         1.7333    2.1063   -3.2364 H         1 <0>         0.0838
     42 H14         3.5519    3.4807   -4.2850 H         1 <0>         0.0733
     43 H15         4.1865    2.1290   -3.3184 H         1 <0>         0.0696
     44 H16         3.8327    2.1468   -6.3527 H         1 <0>         0.0750
     45 H17         7.4995   -0.0540   -4.2625 H         1 <0>         0.4089
     46 H18         5.4070   -1.1259   -4.0883 H         1 <0>         0.0844
     47 H19         4.9697    0.3993   -3.2718 H         1 <0>         0.0693
     48 H20         4.9481   -0.0224   -6.2897 H         1 <0>         0.0875
     49 H21         3.2315   -1.3692   -5.0496 H         1 <0>         0.0860
     50 H22         2.5681   -0.1729   -6.1876 H         1 <0>         0.0702
     51 H23         9.5958    5.0149   -5.8762 H         1 <0>         0.4132
     52 H24        10.2250    3.6323   -5.1584 H         1 <0>         0.4134
     53 H25         3.9984    4.0788   -6.4929 H         1 <0>         0.4088
     54 H26         5.0373    5.3478   -6.8575 H         1 <0>         0.4060
@<TRIPOS>BOND
     1    1    2 1
     2    1   29 1
     3    1   30 1
     4    1   31 1
     5    2    3 1
     6    3    8 ar
     7    3    4 ar
     8    4    5 ar
     9    4   32 1
    10    5    6 ar
    11    5   13 1
    12    6    7 ar
    13    6   33 1
    14    7    8 ar
    15    7   11 1
    16    8    9 1
    17    9   10 1
    18   10   34 1
    19   10   35 1
    20   10   36 1
    21   11   12 1
    22   12   37 1
    23   12   38 1
    24   12   39 1
    25   13   26 1
    26   13   14 1
    27   14   15 1
    28   14   40 1
    29   14   41 1
    30   15   16 1
    31   15   42 1
    32   15   43 1
    33   16   25 1
    34   16   17 1
    35   16   44 1
    36   17   22 ar
    37   17   18 ar
    38   18   19 ar
    39   18   28 1
    40   19   20 ar
    41   20   21 ar
    42   20   27 1
    43   21   22 ar
    44   22   23 1
    45   23   24 1
    46   23   45 1
    47   24   25 1
    48   24   46 1
    49   24   47 1
    50   25   26 1
    51   25   48 1
    52   26   49 1
    53   26   50 1
    54   27   51 1
    55   27   52 1
    56   28   53 1
    57   28   54 1
@<TRIPOS>MOLECULE
CHEMBL281618
   60    64     0     0     0
SMALL
USER_CHARGES

@<TRIPOS>ATOM
      1 C1          2.5364   -0.7493   -0.3545 C.3       1 <0>        -0.1727
      2 C2          1.1956   -1.3050    0.1296 C.3       1 <0>         0.4032
      3 N1          0.1949   -1.1814   -0.9367 N.pl3     1 <0>        -0.6955
      4 C3         -1.0583   -0.9576   -0.6434 C.cat     1 <0>         0.7285
      5 N2         -1.4746   -0.7899    0.6233 N.2       1 <0>        -0.6370
      6 C4         -0.6098   -0.5917    1.6010 C.2       1 <0>         0.7321
      7 N3          0.7296   -0.5332    1.2921 N.pl3     1 <0>        -0.5929
      8 C5          1.6165    0.2326    2.0559 C.ar      1 <0>         0.1310
      9 C6          1.7470    1.5944    1.8130 C.ar      1 <0>        -0.1427
     10 C7          2.6224    2.3506    2.5676 C.ar      1 <0>        -0.0592
     11 C8          3.3710    1.7554    3.5654 C.ar      1 <0>        -0.1839
     12 C9          3.2448    0.3957    3.8125 C.ar      1 <0>         0.1544
     13 C10         2.3631   -0.3656    3.0612 C.ar      1 <0>        -0.1480
     14 O1          3.9818   -0.1882    4.7937 O.3       1 <0>        -0.3000
     15 C11         4.8662    0.6577    5.5314 C.3       1 <0>         0.0660
     16 C12         5.6049   -0.1711    6.5841 C.3       1 <0>        -0.0489
     17 C13         4.5906   -0.8044    7.5386 C.3       1 <0>        -0.0987
     18 C14         5.3293   -1.6333    8.5913 C.3       1 <0>        -0.0870
     19 C15         6.2762   -0.7275    9.3811 C.3       1 <0>        -0.1114
     20 C16         7.2906   -0.0943    8.4267 C.3       1 <0>        -0.0840
     21 C17         6.5519    0.7346    7.3740 C.3       1 <0>        -0.1026
     22 C18         8.0967   -1.1956    7.7352 C.3       1 <0>        -0.1114
     23 C19         7.1498   -2.1013    6.9453 C.3       1 <0>        -0.0870
     24 C20         6.1354   -2.7346    7.8998 C.3       1 <0>        -0.1090
     25 C21         6.4111   -1.2724    5.8926 C.3       1 <0>        -0.0987
     26 N4         -1.0362   -0.4470    2.8919 N.pl3     1 <0>        -0.7691
     27 N5         -1.9833   -0.8919   -1.6659 N.pl3     1 <0>        -0.7924
     28 C22         1.3572   -2.7759    0.5184 C.3       1 <0>        -0.1815
     29 H1          3.2919   -0.9001    0.4166 H         1 <0>         0.1017
     30 H2          2.8375   -1.2681   -1.2645 H         1 <0>         0.0984
     31 H3          2.4350    0.3163   -0.5603 H         1 <0>         0.0837
     32 H4          1.1637    2.0618    1.0334 H         1 <0>         0.1278
     33 H5          2.7225    3.4090    2.3773 H         1 <0>         0.1411
     34 H6          4.0552    2.3491    4.1533 H         1 <0>         0.1412
     35 H7          2.2606   -1.4231    3.2548 H         1 <0>         0.1410
     36 H8          5.5889    1.1089    4.8515 H         1 <0>         0.0682
     37 H9          4.2919    1.4423    6.0241 H         1 <0>         0.0682
     38 H10         4.0163   -0.0198    8.0312 H         1 <0>         0.0609
     39 H11         3.9160   -1.4497    6.9759 H         1 <0>         0.0677
     40 H12         4.6066   -2.0844    9.2712 H         1 <0>         0.0715
     41 H13         5.7019    0.0570    9.8738 H         1 <0>         0.0627
     42 H14         6.8025   -1.3180   10.1311 H         1 <0>         0.0653
     43 H15         7.9652    0.5510    8.9894 H         1 <0>         0.0748
     44 H16         7.2746    1.1857    6.6940 H         1 <0>         0.0662
     45 H17         5.9776    1.5192    7.8666 H         1 <0>         0.0662
     46 H18         8.8194   -0.7444    7.0552 H         1 <0>         0.0626
     47 H19         8.6230   -1.7860    8.4852 H         1 <0>         0.0653
     48 H20         7.7241   -2.8859    6.4527 H         1 <0>         0.0716
     49 H21         6.6617   -3.3250    8.6497 H         1 <0>         0.0640
     50 H22         5.4608   -3.3798    7.3371 H         1 <0>         0.0610
     51 H23         5.7365   -1.9177    5.3299 H         1 <0>         0.0678
     52 H24         7.1337   -0.8213    5.2127 H         1 <0>         0.0609
     53 H25        -1.9766   -0.5491    3.1064 H         1 <0>         0.4406
     54 H26        -0.3982   -0.2421    3.5933 H         1 <0>         0.4306
     55 H27        -1.6989   -1.0111   -2.5856 H         1 <0>         0.4288
     56 H28        -2.9177   -0.7265   -1.4648 H         1 <0>         0.4407
     57 H29         2.0936   -2.8618    1.3174 H         1 <0>         0.0975
     58 H30         0.4002   -3.1680    0.8626 H         1 <0>         0.0718
     59 H31         1.6930   -3.3459   -0.3480 H         1 <0>         0.0970
     60 H32         0.4656   -1.2660   -1.8643 H         1 <0>         0.4316
@<TRIPOS>BOND
     1    1    2 1
     2    1   29 1
     3    1   30 1
     4    1   31 1
     5    2    7 1
     6    2    3 1
     7    2   28 1
     8    3    4 2
     9    3   60 1
    10    4    5 1
    11    4   27 1
    12    5    6 2
    13    6    7 1
    14    6   26 1
    15    7    8 1
    16    8   13 ar
    17    8    9 ar
    18    9   10 ar
    19    9   32 1
    20   10   11 ar
    21   10   33 1
    22   11   12 ar
    23   11   34 1
    24   12   13 ar
    25   12   14 1
    26   13   35 1
    27   14   15 1
    28   15   16 1
    29   15   36 1
    30   15   37 1
    31   16   21 1
    32   16   25 1
    33   16   17 1
    34   17   18 1
    35   17   38 1
    36   17   39 1
    37   18   24 1
    38   18   19 1
    39   18   40 1
    40   19   20 1
    41   19   41 1
    42   19   42 1
    43   20   21 1
    44   20   22 1
    45   20   43 1
    46   21   44 1
    47   21   45 1
    48   22   23 1
    49   22   46 1
    50   22   47 1
    51   23   24 1
    52   23   25 1
    53   23   48 1
    54   24   49 1
    55   24   50 1
    56   25   51 1
    57   25   52 1
    58   26   53 1
    59   26   54 1
    60   27   55 1
    61   27   56 1
    62   28   57 1
    63   28   58 1
    64   28   59 1
@<TRIPOS>MOLECULE
CHEMBL20628
   53    55     0     0     0
SMALL
USER_CHARGES

@<TRIPOS>ATOM
      1 C1          2.5364   -0.7493   -0.3545 C.3       1 <0>        -0.1731
      2 C2          1.1956   -1.3050    0.1296 C.3       1 <0>         0.4031
      3 N1          0.1949   -1.1814   -0.9367 N.pl3     1 <0>        -0.6952
      4 C3         -1.0583   -0.9576   -0.6434 C.cat     1 <0>         0.7286
      5 N2         -1.4746   -0.7899    0.6233 N.2       1 <0>        -0.6366
      6 C4         -0.6098   -0.5917    1.6010 C.2       1 <0>         0.7322
      7 N3          0.7296   -0.5332    1.2921 N.pl3     1 <0>        -0.5936
      8 C5          1.6165    0.2326    2.0559 C.ar      1 <0>         0.1319
      9 C6          1.7470    1.5944    1.8130 C.ar      1 <0>        -0.1401
     10 C7          2.6224    2.3506    2.5676 C.ar      1 <0>        -0.0586
     11 C8          3.3710    1.7554    3.5654 C.ar      1 <0>        -0.1837
     12 C9          3.2448    0.3957    3.8125 C.ar      1 <0>         0.1520
     13 C10         2.3631   -0.3656    3.0612 C.ar      1 <0>        -0.1450
     14 O1          3.9818   -0.1882    4.7937 O.3       1 <0>        -0.3007
     15 C11         4.8662    0.6577    5.5314 C.3       1 <0>         0.0591
     16 C12         5.6049   -0.1711    6.5841 C.3       1 <0>         0.0579
     17 O2          6.4481   -1.1245    5.9342 O.3       1 <0>        -0.3057
     18 C13         7.1796   -1.9462    6.7320 C.ar      1 <0>         0.1278
     19 C14         7.0834   -1.8411    8.1122 C.ar      1 <0>        -0.1778
     20 C15         7.8276   -2.6778    8.9209 C.ar      1 <0>        -0.0762
     21 C16         8.6680   -3.6197    8.3561 C.ar      1 <0>        -0.1066
     22 C17         8.7659   -3.7261    6.9812 C.ar      1 <0>        -0.1414
     23 C18         8.0193   -2.8953    6.1679 C.ar      1 <0>        -0.1013
     24 C19         9.6830   -4.7533    6.3690 C.3       1 <0>         0.5097
     25 F1         10.3219   -5.4724    7.3848 F         1 <0>        -0.1723
     26 F2          8.9366   -5.6307    5.5751 F         1 <0>        -0.1745
     27 F3         10.6419   -4.1104    5.5788 F         1 <0>        -0.1733
     28 N4         -1.0362   -0.4470    2.8919 N.pl3     1 <0>        -0.7694
     29 N5         -1.9833   -0.8919   -1.6659 N.pl3     1 <0>        -0.7920
     30 C20         1.3572   -2.7759    0.5184 C.3       1 <0>        -0.1819
     31 H1          3.2919   -0.9001    0.4166 H         1 <0>         0.1020
     32 H2          2.8375   -1.2681   -1.2645 H         1 <0>         0.0990
     33 H3          2.4350    0.3163   -0.5603 H         1 <0>         0.0838
     34 H4          1.1637    2.0618    1.0334 H         1 <0>         0.1291
     35 H5          2.7225    3.4090    2.3773 H         1 <0>         0.1426
     36 H6          4.0552    2.3491    4.1533 H         1 <0>         0.1422
     37 H7          2.2606   -1.4231    3.2548 H         1 <0>         0.1424
     38 H8          5.5889    1.1089    4.8515 H         1 <0>         0.0830
     39 H9          4.2919    1.4423    6.0241 H         1 <0>         0.0935
     40 H10         6.2124    0.4877    7.2047 H         1 <0>         0.0937
     41 H11         4.8807   -0.6933    7.2093 H         1 <0>         0.0801
     42 H12         6.4276   -1.1054    8.5538 H         1 <0>         0.1376
     43 H13         7.7534   -2.5961    9.9952 H         1 <0>         0.1419
     44 H14         9.2490   -4.2730    8.9901 H         1 <0>         0.1440
     45 H15         8.0927   -2.9819    5.0939 H         1 <0>         0.1421
     46 H16        -1.9766   -0.5491    3.1064 H         1 <0>         0.4408
     47 H17        -0.3982   -0.2421    3.5933 H         1 <0>         0.4303
     48 H18        -1.6989   -1.0111   -2.5856 H         1 <0>         0.4290
     49 H19        -2.9177   -0.7265   -1.4648 H         1 <0>         0.4408
     50 H20         2.0936   -2.8618    1.3174 H         1 <0>         0.0978
     51 H21         0.4002   -3.1680    0.8626 H         1 <0>         0.0719
     52 H22         1.6930   -3.3459   -0.3480 H         1 <0>         0.0975
     53 H23         0.4656   -1.2660   -1.8643 H         1 <0>         0.4319
@<TRIPOS>BOND
     1    1    2 1
     2    1   31 1
     3    1   32 1
     4    1   33 1
     5    2    7 1
     6    2    3 1
     7    2   30 1
     8    3    4 2
     9    3   53 1
    10    4    5 1
    11    4   29 1
    12    5    6 2
    13    6    7 1
    14    6   28 1
    15    7    8 1
    16    8   13 ar
    17    8    9 ar
    18    9   10 ar
    19    9   34 1
    20   10   11 ar
    21   10   35 1
    22   11   12 ar
    23   11   36 1
    24   12   13 ar
    25   12   14 1
    26   13   37 1
    27   14   15 1
    28   15   16 1
    29   15   38 1
    30   15   39 1
    31   16   17 1
    32   16   40 1
    33   16   41 1
    34   17   18 1
    35   18   23 ar
    36   18   19 ar
    37   19   20 ar
    38   19   42 1
    39   20   21 ar
    40   20   43 1
    41   21   22 ar
    42   21   44 1
    43   22   23 ar
    44   22   24 1
    45   23   45 1
    46   24   25 1
    47   24   26 1
    48   24   27 1
    49   28   46 1
    50   28   47 1
    51   29   48 1
    52   29   49 1
    53   30   50 1
    54   30   51 1
    55   30   52 1
@<TRIPOS>MOLECULE
CHEMBL162476
   53    55     0     0     0
SMALL
USER_CHARGES

@<TRIPOS>ATOM
      1 C1          0.1107    1.1504   -0.7554 C.ar      1 <0>        -0.0172
      2 C2          1.2965    1.8790   -0.7712 C.ar      1 <0>        -0.1054
      3 C3          2.4834    1.2925   -0.4424 C.ar      1 <0>        -0.0095
      4 C4          2.5085   -0.0597   -0.0846 C.ar      1 <0>        -0.1763
      5 C5          1.3032   -0.8029   -0.0678 C.ar      1 <0>         0.1981
      6 C6          0.1014   -0.1688   -0.4113 C.ar      1 <0>        -0.1468
      7 N1          1.3477   -2.0979    0.2783 N.ar      1 <0>        -0.5797
      8 C7          2.4957   -2.6650    0.5967 C.ar      1 <0>         0.6832
      9 N2          3.6500   -2.0043    0.5941 N.ar      1 <0>        -0.5805
     10 C8          3.7112   -0.7219    0.2669 C.ar      1 <0>         0.5681
     11 N3          4.9142   -0.0490    0.2677 N.pl3     1 <0>        -0.7994
     12 N4          2.4987   -4.0026    0.9485 N.pl3     1 <0>        -0.7906
     13 C9          3.7586    2.0953   -0.4649 C.3       1 <0>         0.1268
     14 N5          4.4747    1.8394   -1.7171 N.pl3     1 <0>        -0.7521
     15 C10         5.6871    2.4727   -1.9665 C.ar      1 <0>         0.1863
     16 C11         6.2221    3.3453   -1.0229 C.ar      1 <0>        -0.1982
     17 C12         7.4218    3.9736   -1.2668 C.ar      1 <0>        -0.0209
     18 C13         8.1035    3.7349   -2.4637 C.ar      1 <0>        -0.1391
     19 C14         7.5637    2.8581   -3.4093 C.ar      1 <0>        -0.0390
     20 C15         6.3664    2.2285   -3.1570 C.ar      1 <0>        -0.1820
     21 C16         9.3897    4.4072   -2.7285 C.2       1 <0>         0.5417
     22 O1          9.8579    5.1699   -1.9053 O.2       1 <0>        -0.5530
     23 N6         10.0457    4.1760   -3.8829 N.am      1 <0>        -0.6734
     24 C17        11.3230    4.8437   -4.1459 C.3       1 <0>         0.0731
     25 C18        11.5479    4.9373   -5.6564 C.3       1 <0>        -0.0834
     26 C19        10.4823    5.8439   -6.2755 C.3       1 <0>        -0.1765
     27 C20        10.7039    5.9362   -7.7632 C.2       1 <0>         0.4900
     28 O2         11.6285    5.3327   -8.2804 O.co2     1 <0>        -0.6960
     29 O3          9.9586    6.6143   -8.4497 O.co2     1 <0>        -0.7187
     30 C21        12.4419    4.0521   -3.5195 C.2       1 <0>         0.4984
     31 O4         12.3423    2.8425   -3.4035 O.co2     1 <0>        -0.7009
     32 O5         13.4468    4.6213   -3.1287 O.co2     1 <0>        -0.6972
     33 H1         -0.8169    1.6387   -1.0154 H         1 <0>         0.1574
     34 H2          1.2767    2.9228   -1.0478 H         1 <0>         0.1561
     35 H3         -0.8264   -0.7216   -0.4031 H         1 <0>         0.1567
     36 H4          5.5387   -0.1729    0.9996 H         1 <0>         0.4274
     37 H5          5.1362    0.5484   -0.4635 H         1 <0>         0.4378
     38 H6          1.6682   -4.5037    0.9574 H         1 <0>         0.4284
     39 H7          3.3314   -4.4397    1.1862 H         1 <0>         0.4448
     40 H8          3.5211    3.1566   -0.3925 H         1 <0>         0.0949
     41 H9          4.3856    1.8050    0.3781 H         1 <0>         0.0965
     42 H10         4.1030    1.2282   -2.3722 H         1 <0>         0.4019
     43 H11         5.6948    3.5296   -0.0985 H         1 <0>         0.1232
     44 H12         7.8361    4.6507   -0.5345 H         1 <0>         0.1395
     45 H13         8.0879    2.6720   -4.3350 H         1 <0>         0.1357
     46 H14         5.9512    1.5474   -3.8850 H         1 <0>         0.1256
     47 H15         9.6722    3.5676   -4.5396 H         1 <0>         0.3901
     48 H16        11.3036    5.8462   -3.7186 H         1 <0>         0.0792
     49 H17        12.5365    5.3530   -5.8514 H         1 <0>         0.0744
     50 H18        11.4788    3.9425   -6.0964 H         1 <0>         0.0602
     51 H19         9.4937    5.4283   -6.0805 H         1 <0>         0.0491
     52 H20        10.5514    6.8388   -5.8355 H         1 <0>         0.0533
     53 H21         0.5308   -2.6207    0.2950 H         1 <0>         0.4384
@<TRIPOS>BOND
     1    1    6 ar
     2    1    2 ar
     3    1   33 1
     4    2    3 ar
     5    2   34 1
     6    3    4 ar
     7    3   13 1
     8    4   10 ar
     9    4    5 ar
    10    5    6 ar
    11    5    7 ar
    12    6   35 1
    13    7    8 ar
    14    7   53 1
    15    8    9 ar
    16    8   12 1
    17    9   10 ar
    18   10   11 1
    19   11   36 1
    20   11   37 1
    21   12   38 1
    22   12   39 1
    23   13   14 1
    24   13   40 1
    25   13   41 1
    26   14   15 1
    27   14   42 1
    28   15   20 ar
    29   15   16 ar
    30   16   17 ar
    31   16   43 1
    32   17   18 ar
    33   17   44 1
    34   18   19 ar
    35   18   21 1
    36   19   20 ar
    37   19   45 1
    38   20   46 1
    39   21   22 2
    40   21   23 am
    41   23   24 1
    42   23   47 1
    43   24   25 1
    44   24   30 1
    45   24   48 1
    46   25   26 1
    47   25   49 1
    48   25   50 1
    49   26   27 1
    50   26   51 1
    51   26   52 1
    52   27   28 2
    53   27   29 1
    54   30   31 2
    55   30   32 1
@<TRIPOS>MOLECULE
CHEMBL162476__1
   53    55     0     0     0
SMALL
USER_CHARGES

@<TRIPOS>ATOM
      1 C1          0.1107    1.1504   -0.7554 C.ar      1 <0>        -0.0173
      2 C2          1.2965    1.8790   -0.7712 C.ar      1 <0>        -0.1056
      3 C3          2.4834    1.2925   -0.4424 C.ar      1 <0>        -0.0093
      4 C4          2.5085   -0.0597   -0.0846 C.ar      1 <0>        -0.1763
      5 C5          1.3032   -0.8029   -0.0678 C.ar      1 <0>         0.1981
      6 C6          0.1014   -0.1688   -0.4113 C.ar      1 <0>        -0.1470
      7 N1          1.3477   -2.0979    0.2783 N.ar      1 <0>        -0.5798
      8 C7          2.4957   -2.6650    0.5967 C.ar      1 <0>         0.6832
      9 N2          3.6500   -2.0043    0.5941 N.ar      1 <0>        -0.5804
     10 C8          3.7112   -0.7219    0.2669 C.ar      1 <0>         0.5681
     11 N3          4.9142   -0.0490    0.2677 N.pl3     1 <0>        -0.7995
     12 N4          2.4987   -4.0026    0.9485 N.pl3     1 <0>        -0.7905
     13 C9          3.7586    2.0953   -0.4649 C.3       1 <0>         0.1269
     14 N5          4.4747    1.8394   -1.7171 N.pl3     1 <0>        -0.7522
     15 C10         5.6871    2.4727   -1.9665 C.ar      1 <0>         0.1851
     16 C11         6.2221    3.3453   -1.0229 C.ar      1 <0>        -0.1979
     17 C12         7.4218    3.9736   -1.2668 C.ar      1 <0>        -0.0213
     18 C13         8.1035    3.7349   -2.4637 C.ar      1 <0>        -0.1364
     19 C14         7.5637    2.8581   -3.4093 C.ar      1 <0>        -0.0400
     20 C15         6.3664    2.2285   -3.1570 C.ar      1 <0>        -0.1821
     21 C16         9.3897    4.4072   -2.7285 C.2       1 <0>         0.5485
     22 O1          9.8579    5.1699   -1.9053 O.2       1 <0>        -0.5544
     23 N6         10.0457    4.1760   -3.8829 N.am      1 <0>        -0.6739
     24 C17        11.3230    4.8437   -4.1459 C.3       1 <0>         0.0721
     25 C18        12.1408    4.0091   -5.1335 C.3       1 <0>        -0.0816
     26 C19        12.5087    2.6713   -4.4885 C.3       1 <0>        -0.1767
     27 C20        13.3143    1.8492   -5.4613 C.2       1 <0>         0.4897
     28 O2         13.5704    2.2923   -6.5679 O.co2     1 <0>        -0.6947
     29 O3         13.7098    0.7411   -5.1417 O.co2     1 <0>        -0.7203
     30 C21        11.0654    6.2073   -4.7334 C.2       1 <0>         0.4954
     31 O4          9.9209    6.5863   -4.9155 O.co2     1 <0>        -0.6988
     32 O5         12.0013    6.9315   -5.0266 O.co2     1 <0>        -0.6957
     33 H1         -0.8169    1.6387   -1.0154 H         1 <0>         0.1573
     34 H2          1.2767    2.9228   -1.0478 H         1 <0>         0.1560
     35 H3         -0.8264   -0.7216   -0.4031 H         1 <0>         0.1566
     36 H4          5.5387   -0.1729    0.9996 H         1 <0>         0.4272
     37 H5          5.1362    0.5484   -0.4635 H         1 <0>         0.4379
     38 H6          1.6682   -4.5037    0.9574 H         1 <0>         0.4284
     39 H7          3.3314   -4.4397    1.1862 H         1 <0>         0.4449
     40 H8          3.5211    3.1566   -0.3925 H         1 <0>         0.0948
     41 H9          4.3856    1.8050    0.3781 H         1 <0>         0.0964
     42 H10         4.1030    1.2282   -2.3722 H         1 <0>         0.4017
     43 H11         5.6948    3.5296   -0.0985 H         1 <0>         0.1229
     44 H12         7.8361    4.6507   -0.5345 H         1 <0>         0.1392
     45 H13         8.0879    2.6720   -4.3350 H         1 <0>         0.1347
     46 H14         5.9512    1.5474   -3.8850 H         1 <0>         0.1250
     47 H15         9.6722    3.5676   -4.5396 H         1 <0>         0.3879
     48 H16        11.8769    4.9487   -3.2130 H         1 <0>         0.0791
     49 H17        11.5513    3.8290   -6.0325 H         1 <0>         0.0552
     50 H18        13.0510    4.5475   -5.3977 H         1 <0>         0.0809
     51 H19        13.0982    2.8513   -3.5895 H         1 <0>         0.0525
     52 H20        11.5985    2.1329   -4.2243 H         1 <0>         0.0477
     53 H21         0.5308   -2.6207    0.2950 H         1 <0>         0.4384
@<TRIPOS>BOND
     1    1    6 ar
     2    1    2 ar
     3    1   33 1
     4    2    3 ar
     5    2   34 1
     6    3    4 ar
     7    3   13 1
     8    4   10 ar
     9    4    5 ar
    10    5    6 ar
    11    5    7 ar
    12    6   35 1
    13    7    8 ar
    14    7   53 1
    15    8    9 ar
    16    8   12 1
    17    9   10 ar
    18   10   11 1
    19   11   36 1
    20   11   37 1
    21   12   38 1
    22   12   39 1
    23   13   14 1
    24   13   40 1
    25   13   41 1
    26   14   15 1
    27   14   42 1
    28   15   20 ar
    29   15   16 ar
    30   16   17 ar
    31   16   43 1
    32   17   18 ar
    33   17   44 1
    34   18   19 ar
    35   18   21 1
    36   19   20 ar
    37   19   45 1
    38   20   46 1
    39   21   22 2
    40   21   23 am
    41   23   24 1
    42   23   47 1
    43   24   25 1
    44   24   30 1
    45   24   48 1
    46   25   26 1
    47   25   49 1
    48   25   50 1
    49   26   27 1
    50   26   51 1
    51   26   52 1
    52   27   28 2
    53   27   29 1
    54   30   31 2
    55   30   32 1
@<TRIPOS>MOLECULE
CHEMBL10591
   49    51     0     0     0
SMALL
USER_CHARGES

@<TRIPOS>ATOM
      1 C1         -0.0169    1.3941    0.0097 C.ar      1 <0>        -0.0475
      2 C2          1.1617    2.0943    0.0022 C.ar      1 <0>        -0.1063
      3 C3          2.3773    1.4143   -0.0135 C.ar      1 <0>        -0.0788
      4 C4          2.3993    0.0215   -0.0217 C.ar      1 <0>        -0.1364
      5 C5          1.2239   -0.6840   -0.0138 C.ar      1 <0>        -0.0658
      6 C6          0.0021   -0.0041    0.0020 C.ar      1 <0>        -0.1053
      7 C7         -1.2641   -0.7602    0.0100 C.2       1 <0>         0.5476
      8 O1         -2.3260   -0.1677    0.0234 O.2       1 <0>        -0.5531
      9 N1         -1.2443   -2.1078    0.0026 N.am      1 <0>        -0.6734
     10 C8         -2.5021   -2.8589    0.0106 C.3       1 <0>         0.0723
     11 C9         -2.2640   -4.2460    0.6105 C.3       1 <0>        -0.0814
     12 C10        -1.8678   -4.1043    2.0815 C.3       1 <0>        -0.1776
     13 C11        -1.6333   -5.4707    2.6725 C.2       1 <0>         0.4908
     14 O2         -1.7703   -6.4655    1.9811 O.co2     1 <0>        -0.6970
     15 O3         -1.3065   -5.5812    3.8419 O.co2     1 <0>        -0.7198
     16 C12        -3.0104   -3.0025   -1.4008 C.2       1 <0>         0.4971
     17 O4         -2.2996   -2.6869   -2.3398 O.co2     1 <0>        -0.6978
     18 O5         -4.1324   -3.4342   -1.6037 O.co2     1 <0>        -0.6999
     19 S1          3.8901    2.3177   -0.0237 S.3       1 <0>        -0.0998
     20 C13         5.1692    1.0315   -0.0433 C.3       1 <0>        -0.0567
     21 C14         6.5308    1.6772   -0.0533 C.ar      1 <0>         0.0636
     22 C15         7.1401    1.9848   -1.2694 C.ar      1 <0>         0.1600
     23 N2          8.3285    2.5493   -1.3037 N.ar      1 <0>        -0.4395
     24 C16         8.9574    2.8304   -0.1598 C.ar      1 <0>         0.3737
     25 C17         8.3337    2.5157    1.0732 C.ar      1 <0>        -0.0870
     26 N3          7.1308    1.9503    1.0857 N.ar      1 <0>        -0.3652
     27 C18         9.0540    2.8395    2.3059 C.ar      1 <0>         0.5467
     28 N4         10.2465    3.4076    2.1916 N.ar      1 <0>        -0.6310
     29 C19        10.7722    3.6750    1.0003 C.ar      1 <0>         0.6390
     30 N5         10.1667    3.4045   -0.1389 N.ar      1 <0>        -0.6023
     31 N6         12.0194    4.2681    0.9537 N.pl3     1 <0>        -0.8093
     32 N7          8.5114    2.5637    3.5418 N.pl3     1 <0>        -0.7890
     33 H1         -0.9590    1.9219    0.0260 H         1 <0>         0.1411
     34 H2          1.1477    3.1742    0.0081 H         1 <0>         0.1292
     35 H3          3.3433   -0.5031   -0.0346 H         1 <0>         0.1259
     36 H4          1.2415   -1.7638   -0.0205 H         1 <0>         0.1343
     37 H5         -0.3973   -2.5803   -0.0080 H         1 <0>         0.3898
     38 H6         -3.2400   -2.3255    0.6100 H         1 <0>         0.0791
     39 H7         -3.1774   -4.8360    0.5355 H         1 <0>         0.0776
     40 H8         -1.4632   -4.7452    0.0650 H         1 <0>         0.0566
     41 H9         -0.9544   -3.5143    2.1566 H         1 <0>         0.0502
     42 H10        -2.6687   -3.6052    2.6270 H         1 <0>         0.0529
     43 H11         5.0699    0.4068    0.8444 H         1 <0>         0.1133
     44 H12         5.0522    0.4163   -0.9355 H         1 <0>         0.1147
     45 H13         6.6308    1.7568   -2.1941 H         1 <0>         0.1860
     46 H14        12.4876    4.4782    1.7768 H         1 <0>         0.4156
     47 H15        12.4267    4.4743    0.0979 H         1 <0>         0.4184
     48 H16         7.6374    2.1480    3.6059 H         1 <0>         0.4287
     49 H17         9.0034    2.7854    4.3478 H         1 <0>         0.4157
@<TRIPOS>BOND
     1    1    6 ar
     2    1    2 ar
     3    1   33 1
     4    2    3 ar
     5    2   34 1
     6    3    4 ar
     7    3   19 1
     8    4    5 ar
     9    4   35 1
    10    5    6 ar
    11    5   36 1
    12    6    7 1
    13    7    8 2
    14    7    9 am
    15    9   10 1
    16    9   37 1
    17   10   11 1
    18   10   16 1
    19   10   38 1
    20   11   12 1
    21   11   39 1
    22   11   40 1
    23   12   13 1
    24   12   41 1
    25   12   42 1
    26   13   14 2
    27   13   15 1
    28   16   17 2
    29   16   18 1
    30   19   20 1
    31   20   21 1
    32   20   43 1
    33   20   44 1
    34   21   26 ar
    35   21   22 ar
    36   22   23 ar
    37   22   45 1
    38   23   24 ar
    39   24   30 ar
    40   24   25 ar
    41   25   26 ar
    42   25   27 ar
    43   27   28 ar
    44   27   32 1
    45   28   29 ar
    46   29   30 ar
    47   29   31 1
    48   31   46 1
    49   31   47 1
    50   32   48 1
    51   32   49 1
@<TRIPOS>MOLECULE
CHEMBL10591__1
   49    51     0     0     0
SMALL
USER_CHARGES

@<TRIPOS>ATOM
      1 C1         -0.0169    1.3941    0.0097 C.ar      1 <0>        -0.0472
      2 C2          1.1617    2.0943    0.0022 C.ar      1 <0>        -0.1064
      3 C3          2.3773    1.4143   -0.0135 C.ar      1 <0>        -0.0782
      4 C4          2.3993    0.0215   -0.0217 C.ar      1 <0>        -0.1364
      5 C5          1.2239   -0.6840   -0.0138 C.ar      1 <0>        -0.0654
      6 C6          0.0021   -0.0041    0.0020 C.ar      1 <0>        -0.1072
      7 C7         -1.2641   -0.7602    0.0100 C.2       1 <0>         0.5429
      8 O1         -2.3260   -0.1677    0.0234 O.2       1 <0>        -0.5509
      9 N1         -1.2443   -2.1078    0.0026 N.am      1 <0>        -0.6741
     10 C8         -2.5021   -2.8589    0.0106 C.3       1 <0>         0.0732
     11 C9         -2.2756   -4.2395   -0.6086 C.3       1 <0>        -0.0826
     12 C10        -1.9076   -4.0820   -2.0853 C.3       1 <0>        -0.1772
     13 C11        -1.6845   -5.4418   -2.6953 C.2       1 <0>         0.4909
     14 O2         -1.8084   -6.4441   -2.0122 O.co2     1 <0>        -0.6976
     15 O3         -1.3802   -5.5398   -3.8718 O.co2     1 <0>        -0.7191
     16 C12        -2.9834   -3.0177    1.4298 C.2       1 <0>         0.4984
     17 O4         -4.1776   -3.0933    1.6637 O.co2     1 <0>        -0.7001
     18 O5         -2.1786   -3.0705    2.3441 O.co2     1 <0>        -0.6988
     19 S1          3.8901    2.3177   -0.0237 S.3       1 <0>        -0.0994
     20 C13         5.1692    1.0315   -0.0433 C.3       1 <0>        -0.0568
     21 C14         6.5308    1.6772   -0.0533 C.ar      1 <0>         0.0636
     22 C15         7.1401    1.9848   -1.2694 C.ar      1 <0>         0.1602
     23 N2          8.3285    2.5493   -1.3037 N.ar      1 <0>        -0.4393
     24 C16         8.9574    2.8304   -0.1598 C.ar      1 <0>         0.3738
     25 C17         8.3337    2.5157    1.0732 C.ar      1 <0>        -0.0871
     26 N3          7.1308    1.9503    1.0857 N.ar      1 <0>        -0.3653
     27 C18         9.0540    2.8395    2.3059 C.ar      1 <0>         0.5466
     28 N4         10.2465    3.4076    2.1916 N.ar      1 <0>        -0.6309
     29 C19        10.7722    3.6750    1.0003 C.ar      1 <0>         0.6389
     30 N5         10.1667    3.4045   -0.1389 N.ar      1 <0>        -0.6021
     31 N6         12.0194    4.2681    0.9537 N.pl3     1 <0>        -0.8093
     32 N7          8.5114    2.5637    3.5418 N.pl3     1 <0>        -0.7892
     33 H1         -0.9590    1.9219    0.0260 H         1 <0>         0.1414
     34 H2          1.1477    3.1742    0.0081 H         1 <0>         0.1295
     35 H3          3.3433   -0.5031   -0.0346 H         1 <0>         0.1263
     36 H4          1.2415   -1.7638   -0.0205 H         1 <0>         0.1349
     37 H5         -0.3973   -2.5803   -0.0080 H         1 <0>         0.3912
     38 H6         -3.2512   -2.3192   -0.5688 H         1 <0>         0.0788
     39 H7         -1.4646   -4.7444   -0.0839 H         1 <0>         0.0602
     40 H8         -3.1875   -4.8304   -0.5225 H         1 <0>         0.0732
     41 H9         -2.7187   -3.5770   -2.6101 H         1 <0>         0.0531
     42 H10        -0.9957   -3.4911   -2.1715 H         1 <0>         0.0508
     43 H11         5.0699    0.4068    0.8444 H         1 <0>         0.1132
     44 H12         5.0522    0.4163   -0.9355 H         1 <0>         0.1150
     45 H13         6.6308    1.7568   -2.1941 H         1 <0>         0.1861
     46 H14        12.4876    4.4782    1.7768 H         1 <0>         0.4156
     47 H15        12.4267    4.4743    0.0979 H         1 <0>         0.4185
     48 H16         7.6374    2.1480    3.6059 H         1 <0>         0.4285
     49 H17         9.0034    2.7854    4.3478 H         1 <0>         0.4156
@<TRIPOS>BOND
     1    1    6 ar
     2    1    2 ar
     3    1   33 1
     4    2    3 ar
     5    2   34 1
     6    3    4 ar
     7    3   19 1
     8    4    5 ar
     9    4   35 1
    10    5    6 ar
    11    5   36 1
    12    6    7 1
    13    7    8 2
    14    7    9 am
    15    9   10 1
    16    9   37 1
    17   10   11 1
    18   10   16 1
    19   10   38 1
    20   11   12 1
    21   11   39 1
    22   11   40 1
    23   12   13 1
    24   12   41 1
    25   12   42 1
    26   13   14 2
    27   13   15 1
    28   16   17 2
    29   16   18 1
    30   19   20 1
    31   20   21 1
    32   20   43 1
    33   20   44 1
    34   21   26 ar
    35   21   22 ar
    36   22   23 ar
    37   22   45 1
    38   23   24 ar
    39   24   30 ar
    40   24   25 ar
    41   25   26 ar
    42   25   27 ar
    43   27   28 ar
    44   27   32 1
    45   28   29 ar
    46   29   30 ar
    47   29   31 1
    48   31   46 1
    49   31   47 1
    50   32   48 1
    51   32   49 1
@<TRIPOS>MOLECULE
CHEMBL151451
   52    57     0     0     0
SMALL
USER_CHARGES

@<TRIPOS>ATOM
      1 C1          0.6027    1.5059    0.0256 C.3       1 <0>        -0.1692
      2 C2          0.5978   -0.0011    0.0167 C.ar      1 <0>         0.0781
      3 C3          0.7711   -0.7002   -1.1492 C.ar      1 <0>        -0.1769
      4 C4          0.7631   -2.0894   -1.1308 C.ar      1 <0>         0.2407
      5 N1          0.5923   -2.7658   -0.0167 N.ar      1 <0>        -0.4981
      6 C5          0.4186   -2.1439    1.1496 C.ar      1 <0>         0.4089
      7 C6          0.4219   -0.7279    1.1996 C.ar      1 <0>        -0.2410
      8 C7          0.2403   -0.0941    2.4537 C.ar      1 <0>         0.5787
      9 N2          0.0801   -0.8575    3.5253 N.ar      1 <0>        -0.5778
     10 C8          0.0882   -2.1844    3.4357 C.ar      1 <0>         0.6998
     11 N3          0.2432   -2.8239    2.2916 N.ar      1 <0>        -0.5725
     12 N4         -0.0838   -2.9256    4.5891 N.pl3     1 <0>        -0.7764
     13 N5          0.2308    1.2796    2.5567 N.pl3     1 <0>        -0.8020
     14 C9          0.9696    0.0364   -2.4489 C.3       1 <0>         0.1607
     15 N6          2.3622    0.4797   -2.5512 N.pl3     1 <0>        -0.7281
     16 C10         2.7757    1.1675   -3.6430 C.ar      1 <0>         0.2437
     17 C11         1.8325    1.4838   -4.7363 C.ar      1 <0>        -0.1721
     18 C12         2.2111    2.1509   -5.8097 C.ar      1 <0>        -0.0348
     19 C13         3.6137    2.5983   -5.9290 C.ar      1 <0>        -0.0920
     20 C14         4.4110    2.3048   -4.9515 C.ar      1 <0>        -0.0196
     21 C15         4.0194    1.5704   -3.7478 C.ar      1 <0>        -0.1486
     22 C16         5.0704    1.3373   -2.7424 C.ar      1 <0>        -0.0839
     23 C17         6.2835    1.7998   -2.9772 C.ar      1 <0>        -0.1234
     24 C18         6.6525    2.5410   -4.1928 C.ar      1 <0>        -0.0627
     25 C19         5.7810    2.7824   -5.1426 C.ar      1 <0>        -0.0529
     26 C20         5.7691    3.4626   -6.4467 C.ar      1 <0>        -0.0613
     27 C21         4.3767    3.3397   -6.9456 C.ar      1 <0>        -0.0422
     28 C22         4.0565    3.8586   -8.1081 C.ar      1 <0>        -0.1010
     29 C23         5.0735    4.5589   -8.9116 C.ar      1 <0>        -0.1079
     30 C24         6.3072    4.6674   -8.4664 C.ar      1 <0>        -0.1166
     31 C25         6.6715    4.0860   -7.1615 C.ar      1 <0>        -0.0842
     32 H1          1.5940    1.8644    0.3030 H         1 <0>         0.1071
     33 H2          0.3472    1.8760   -0.9673 H         1 <0>         0.1069
     34 H3         -0.1295    1.8674    0.7476 H         1 <0>         0.1068
     35 H4          0.9004   -2.6280   -2.0567 H         1 <0>         0.1951
     36 H5         -0.2071   -2.4769    5.4402 H         1 <0>         0.4485
     37 H6         -0.0814   -3.8947    4.5477 H         1 <0>         0.4342
     38 H7         -0.4109    1.7180    3.1371 H         1 <0>         0.4313
     39 H8          0.8658    1.8084    2.0488 H         1 <0>         0.4362
     40 H9          0.7374   -0.6273   -3.2818 H         1 <0>         0.0900
     41 H10         0.3092    0.9030   -2.4798 H         1 <0>         0.0898
     42 H11         2.9882    0.2808   -1.8374 H         1 <0>         0.4024
     43 H12         0.8055    1.1596   -4.6543 H         1 <0>         0.1288
     44 H13         1.5016    2.3678   -6.5945 H         1 <0>         0.1331
     45 H14         4.8524    0.7992   -1.8317 H         1 <0>         0.1184
     46 H15         7.0483    1.6247   -2.2350 H         1 <0>         0.1219
     47 H16         7.6686    2.8877   -4.3099 H         1 <0>         0.1242
     48 H17         3.0450    3.7715   -8.4766 H         1 <0>         0.1250
     49 H18         4.8062    4.9838   -9.8679 H         1 <0>         0.1306
     50 H19         7.0517    5.1816   -9.0560 H         1 <0>         0.1315
     51 H20         7.6836    4.1743   -6.7951 H         1 <0>         0.1260
     52 H21         0.2412   -3.7938    2.2786 H         1 <0>         0.4464
@<TRIPOS>BOND
     1    1    2 1
     2    1   32 1
     3    1   33 1
     4    1   34 1
     5    2    7 ar
     6    2    3 ar
     7    3    4 ar
     8    3   14 1
     9    4    5 ar
    10    4   35 1
    11    5    6 ar
    12    6   11 ar
    13    6    7 ar
    14    7    8 ar
    15    8    9 ar
    16    8   13 1
    17    9   10 ar
    18   10   11 ar
    19   10   12 1
    20   11   52 1
    21   12   36 1
    22   12   37 1
    23   13   38 1
    24   13   39 1
    25   14   15 1
    26   14   40 1
    27   14   41 1
    28   15   16 1
    29   15   42 1
    30   16   21 ar
    31   16   17 ar
    32   17   18 ar
    33   17   43 1
    34   18   19 ar
    35   18   44 1
    36   19   27 1
    37   19   20 ar
    38   20   25 ar
    39   20   21 ar
    40   21   22 ar
    41   22   23 ar
    42   22   45 1
    43   23   24 ar
    44   23   46 1
    45   24   25 ar
    46   24   47 1
    47   25   26 1
    48   26   31 ar
    49   26   27 ar
    50   27   28 ar
    51   28   29 ar
    52   28   48 1
    53   29   30 ar
    54   29   49 1
    55   30   31 ar
    56   30   50 1
    57   31   51 1
@<TRIPOS>MOLECULE
CHEMBL151451__1
   51    56     0     0     0
SMALL
USER_CHARGES

@<TRIPOS>ATOM
      1 C1          0.6027    1.5059    0.0256 C.3       1 <0>        -0.1557
      2 C2          0.5978   -0.0011    0.0167 C.ar      1 <0>         0.0617
      3 C3          0.7711   -0.7002   -1.1492 C.ar      1 <0>        -0.2216
      4 C4          0.7631   -2.0894   -1.1308 C.ar      1 <0>         0.2107
      5 N1          0.5923   -2.7658   -0.0167 N.ar      1 <0>        -0.4886
      6 C5          0.4186   -2.1439    1.1496 C.ar      1 <0>         0.4178
      7 C6          0.4219   -0.7279    1.1996 C.ar      1 <0>        -0.2830
      8 C7          0.2403   -0.0941    2.4537 C.ar      1 <0>         0.5252
      9 N2          0.0801   -0.8575    3.5253 N.ar      1 <0>        -0.6166
     10 C8          0.0882   -2.1844    3.4357 C.ar      1 <0>         0.6262
     11 N3          0.2432   -2.8239    2.2916 N.ar      1 <0>        -0.5913
     12 N4         -0.0838   -2.9256    4.5891 N.pl3     1 <0>        -0.8095
     13 N5          0.2308    1.2796    2.5567 N.pl3     1 <0>        -0.8448
     14 C9          0.9696    0.0364   -2.4489 C.3       1 <0>         0.1695
     15 N6          2.3622    0.4797   -2.5512 N.pl3     1 <0>        -0.7189
     16 C10         2.7757    1.1675   -3.6430 C.ar      1 <0>         0.2602
     17 C11         1.8325    1.4838   -4.7363 C.ar      1 <0>        -0.1728
     18 C12         2.2111    2.1509   -5.8097 C.ar      1 <0>        -0.0340
     19 C13         3.6137    2.5983   -5.9290 C.ar      1 <0>        -0.1104
     20 C14         4.4110    2.3048   -4.9515 C.ar      1 <0>        -0.0101
     21 C15         4.0194    1.5704   -3.7478 C.ar      1 <0>        -0.1664
     22 C16         5.0704    1.3373   -2.7424 C.ar      1 <0>        -0.0688
     23 C17         6.2835    1.7998   -2.9772 C.ar      1 <0>        -0.1393
     24 C18         6.6525    2.5410   -4.1928 C.ar      1 <0>        -0.0543
     25 C19         5.7810    2.7824   -5.1426 C.ar      1 <0>        -0.0639
     26 C20         5.7691    3.4626   -6.4467 C.ar      1 <0>        -0.0558
     27 C21         4.3767    3.3397   -6.9456 C.ar      1 <0>        -0.0320
     28 C22         4.0565    3.8586   -8.1081 C.ar      1 <0>        -0.1101
     29 C23         5.0735    4.5589   -8.9116 C.ar      1 <0>        -0.1085
     30 C24         6.3072    4.6674   -8.4664 C.ar      1 <0>        -0.1205
     31 C25         6.6715    4.0860   -7.1615 C.ar      1 <0>        -0.0904
     32 H1          1.5940    1.8644    0.3030 H         1 <0>         0.0874
     33 H2          0.3472    1.8760   -0.9673 H         1 <0>         0.0858
     34 H3         -0.1295    1.8674    0.7476 H         1 <0>         0.1006
     35 H4          0.9004   -2.6280   -2.0567 H         1 <0>         0.1681
     36 H5         -0.2071   -2.4769    5.4402 H         1 <0>         0.4167
     37 H6         -0.0814   -3.8947    4.5477 H         1 <0>         0.4193
     38 H7         -0.4109    1.7180    3.1371 H         1 <0>         0.4113
     39 H8          0.8658    1.8084    2.0488 H         1 <0>         0.4185
     40 H9          0.7374   -0.6273   -3.2818 H         1 <0>         0.0797
     41 H10         0.3092    0.9030   -2.4798 H         1 <0>         0.0791
     42 H11         2.9882    0.2808   -1.8374 H         1 <0>         0.4036
     43 H12         0.8055    1.1596   -4.6543 H         1 <0>         0.1297
     44 H13         1.5016    2.3678   -6.5945 H         1 <0>         0.1302
     45 H14         4.8524    0.7992   -1.8317 H         1 <0>         0.1208
     46 H15         7.0483    1.6247   -2.2350 H         1 <0>         0.1204
     47 H16         7.6686    2.8877   -4.3099 H         1 <0>         0.1211
     48 H17         3.0450    3.7715   -8.4766 H         1 <0>         0.1235
     49 H18         4.8062    4.9838   -9.8679 H         1 <0>         0.1275
     50 H19         7.0517    5.1816   -9.0560 H         1 <0>         0.1284
     51 H20         7.6836    4.1743   -6.7951 H         1 <0>         0.1239
@<TRIPOS>BOND
     1    1    2 1
     2    1   32 1
     3    1   33 1
     4    1   34 1
     5    2    7 ar
     6    2    3 ar
     7    3    4 ar
     8    3   14 1
     9    4    5 ar
    10    4   35 1
    11    5    6 ar
    12    6   11 ar
    13    6    7 ar
    14    7    8 ar
    15    8    9 ar
    16    8   13 1
    17    9   10 ar
    18   10   11 ar
    19   10   12 1
    20   12   36 1
    21   12   37 1
    22   13   38 1
    23   13   39 1
    24   14   15 1
    25   14   40 1
    26   14   41 1
    27   15   16 1
    28   15   42 1
    29   16   21 ar
    30   16   17 ar
    31   17   18 ar
    32   17   43 1
    33   18   19 ar
    34   18   44 1
    35   19   27 1
    36   19   20 ar
    37   20   25 ar
    38   20   21 ar
    39   21   22 ar
    40   22   23 ar
    41   22   45 1
    42   23   24 ar
    43   23   46 1
    44   24   25 ar
    45   24   47 1
    46   25   26 1
    47   26   31 ar
    48   26   27 ar
    49   27   28 ar
    50   28   29 ar
    51   28   48 1
    52   29   30 ar
    53   29   49 1
    54   30   31 ar
    55   30   50 1
    56   31   51 1
@<TRIPOS>MOLECULE
CHEMBL93974
   36    38     0     0     0
SMALL
USER_CHARGES

@<TRIPOS>ATOM
      1 C1         -0.4112    1.0439   -0.8341 C.ar      1 <0>        -0.0893
      2 C2          0.6851    1.8679   -0.6606 C.ar      1 <0>        -0.1096
      3 C3          1.9302    1.3194   -0.4159 C.ar      1 <0>        -0.0923
      4 C4          2.0789   -0.0531   -0.3444 C.ar      1 <0>        -0.1613
      5 C5          0.9825   -0.8771   -0.5171 C.ar      1 <0>        -0.0953
      6 C6         -0.2624   -0.3286   -0.7631 C.ar      1 <0>        -0.1098
      7 C7          3.4364   -0.6511   -0.0788 C.3       1 <0>         0.4339
      8 N1          4.4776    0.2145   -0.6448 N.pl3     1 <0>        -0.6973
      9 C8          4.9242    0.0056   -1.8546 C.cat     1 <0>         0.7331
     10 N2          4.4902   -1.0198   -2.6070 N.2       1 <0>        -0.6269
     11 C9          3.7885   -2.0030   -2.0741 C.2       1 <0>         0.7372
     12 N3          3.5318   -1.9703   -0.7228 N.pl3     1 <0>        -0.5960
     13 C10         3.3675   -3.1493    0.0125 C.ar      1 <0>         0.1179
     14 C11         4.3000   -3.5014    0.9800 C.ar      1 <0>        -0.0900
     15 C12         4.1358   -4.6653    1.7050 C.ar      1 <0>        -0.0714
     16 C13         3.0436   -5.4813    1.4685 C.ar      1 <0>        -0.0173
     17 C14         2.1121   -5.1331    0.5047 C.ar      1 <0>        -0.0134
     18 C15         2.2692   -3.9662   -0.2196 C.ar      1 <0>        -0.1183
     19 Cl1         0.7434   -6.1595    0.2102 Cl        1 <0>        -0.0125
     20 Cl2         2.8410   -6.9442    2.3810 Cl        1 <0>        -0.0129
     21 N4          3.3266   -3.0309   -2.8483 N.pl3     1 <0>        -0.7714
     22 N5          5.8704    0.8647   -2.3762 N.pl3     1 <0>        -0.7877
     23 H1         -1.3847    1.4726   -1.0208 H         1 <0>         0.1355
     24 H2          0.5689    2.9401   -0.7164 H         1 <0>         0.1354
     25 H3          2.7868    1.9631   -0.2810 H         1 <0>         0.1231
     26 H4          1.0987   -1.9493   -0.4616 H         1 <0>         0.1240
     27 H5         -1.1189   -0.9723   -0.8984 H         1 <0>         0.1350
     28 H6          3.5882   -0.7550    0.9956 H         1 <0>         0.1561
     29 H7          5.1531   -2.8655    1.1648 H         1 <0>         0.1483
     30 H8          4.8608   -4.9390    2.4572 H         1 <0>         0.1619
     31 H9          1.5406   -3.6926   -0.9684 H         1 <0>         0.1526
     32 H10         3.4348   -2.9990   -3.8117 H         1 <0>         0.4430
     33 H11         2.8906   -3.7920   -2.4342 H         1 <0>         0.4275
     34 H12         6.1937    1.6099   -1.8459 H         1 <0>         0.4302
     35 H13         6.2121    0.7233   -3.2729 H         1 <0>         0.4423
     36 H14         4.8359    0.9458   -0.1179 H         1 <0>         0.4356
@<TRIPOS>BOND
     1    1    6 ar
     2    1    2 ar
     3    1   23 1
     4    2    3 ar
     5    2   24 1
     6    3    4 ar
     7    3   25 1
     8    4    5 ar
     9    4    7 1
    10    5    6 ar
    11    5   26 1
    12    6   27 1
    13    7   12 1
    14    7    8 1
    15    7   28 1
    16    8    9 2
    17    8   36 1
    18    9   10 1
    19    9   22 1
    20   10   11 2
    21   11   12 1
    22   11   21 1
    23   12   13 1
    24   13   18 ar
    25   13   14 ar
    26   14   15 ar
    27   14   29 1
    28   15   16 ar
    29   15   30 1
    30   16   17 ar
    31   16   20 1
    32   17   18 ar
    33   17   19 1
    34   18   31 1
    35   21   32 1
    36   21   33 1
    37   22   34 1
    38   22   35 1
@<TRIPOS>MOLECULE
CHEMBL93974__1
   36    38     0     0     0
SMALL
USER_CHARGES

@<TRIPOS>ATOM
      1 C1         -0.0882    1.3152    0.1179 C.ar      1 <0>        -0.0897
      2 C2          1.0876    2.0408    0.0712 C.ar      1 <0>        -0.1092
      3 C3          2.3032    1.3845    0.0208 C.ar      1 <0>        -0.0923
      4 C4          2.3430    0.0027    0.0175 C.ar      1 <0>        -0.1603
      5 C5          1.1673   -0.7228    0.0650 C.ar      1 <0>        -0.0964
      6 C6         -0.0483   -0.0665    0.1140 C.ar      1 <0>        -0.1101
      7 C7          3.6682   -0.7127   -0.0384 C.3       1 <0>         0.4320
      8 N1          4.6937    0.0922    0.6354 N.pl3     1 <0>        -0.6969
      9 C8          4.9547   -0.0962    1.9015 C.cat     1 <0>         0.7335
     10 N2          4.3382   -1.0485    2.6218 N.2       1 <0>        -0.6280
     11 C9          3.6334   -1.9961    2.0315 C.2       1 <0>         0.7383
     12 N3          3.5640   -2.0046    0.6574 N.pl3     1 <0>        -0.5962
     13 C10         3.3998   -3.1991   -0.0527 C.ar      1 <0>         0.1200
     14 C11         2.2118   -3.9114    0.0493 C.ar      1 <0>        -0.1196
     15 C12         2.0515   -5.0898   -0.6527 C.ar      1 <0>        -0.0692
     16 C13         3.0734   -5.5620   -1.4573 C.ar      1 <0>        -0.0180
     17 C14         4.2592   -4.8543   -1.5612 C.ar      1 <0>        -0.0142
     18 C15         4.4221   -3.6712   -0.8649 C.ar      1 <0>        -0.0890
     19 Cl1         5.5394   -5.4499   -2.5712 Cl        1 <0>        -0.0136
     20 Cl2         2.8689   -7.0443   -2.3375 Cl        1 <0>        -0.0131
     21 N4          2.9869   -2.9483    2.7696 N.pl3     1 <0>        -0.7705
     22 N5          5.8919    0.7079    2.5184 N.pl3     1 <0>        -0.7878
     23 H1         -1.0377    1.8279    0.1618 H         1 <0>         0.1355
     24 H2          1.0564    3.1203    0.0739 H         1 <0>         0.1354
     25 H3          3.2217    1.9513   -0.0163 H         1 <0>         0.1231
     26 H4          1.1985   -1.8023    0.0621 H         1 <0>         0.1248
     27 H5         -0.9669   -0.6334    0.1508 H         1 <0>         0.1350
     28 H6          3.9533   -0.8771   -1.0776 H         1 <0>         0.1554
     29 H7          1.4138   -3.5440    0.6777 H         1 <0>         0.1486
     30 H8          1.1277   -5.6435   -0.5733 H         1 <0>         0.1632
     31 H9          5.3453   -3.1171   -0.9491 H         1 <0>         0.1511
     32 H10         3.1027   -2.9772    3.7322 H         1 <0>         0.4424
     33 H11         2.4125   -3.5950    2.3306 H         1 <0>         0.4279
     34 H12         6.3454    1.4001    2.0124 H         1 <0>         0.4301
     35 H13         6.0969    0.5807    3.4579 H         1 <0>         0.4423
     36 H14         5.1807    0.7676    0.1378 H         1 <0>         0.4356
@<TRIPOS>BOND
     1    1    6 ar
     2    1    2 ar
     3    1   23 1
     4    2    3 ar
     5    2   24 1
     6    3    4 ar
     7    3   25 1
     8    4    5 ar
     9    4    7 1
    10    5    6 ar
    11    5   26 1
    12    6   27 1
    13    7   12 1
    14    7    8 1
    15    7   28 1
    16    8    9 2
    17    8   36 1
    18    9   10 1
    19    9   22 1
    20   10   11 2
    21   11   12 1
    22   11   21 1
    23   12   13 1
    24   13   18 ar
    25   13   14 ar
    26   14   15 ar
    27   14   29 1
    28   15   16 ar
    29   15   30 1
    30   16   17 ar
    31   16   20 1
    32   17   18 ar
    33   17   19 1
    34   18   31 1
    35   21   32 1
    36   21   33 1
    37   22   34 1
    38   22   35 1
@<TRIPOS>MOLECULE
CHEMBL55764
   60    62     0     0     0
SMALL
USER_CHARGES

@<TRIPOS>ATOM
      1 C1         -0.1089   -2.2228    4.1006 C.3       1 <0>        -0.1546
      2 C2          0.1454   -3.4304    3.1963 C.3       1 <0>        -0.1044
      3 C3         -0.3940   -3.1481    1.8177 C.ar      1 <0>         0.2660
      4 C4          0.2970   -2.3071    0.9482 C.ar      1 <0>        -0.1904
      5 C5         -0.2482   -2.0757   -0.3282 C.ar      1 <0>         0.5430
      6 N1         -1.3936   -2.6643   -0.6529 N.ar      1 <0>        -0.5698
      7 C6         -2.0154   -3.4566    0.2075 C.ar      1 <0>         0.6650
      8 N2         -1.5273   -3.7000    1.4155 N.ar      1 <0>        -0.5674
      9 N3         -3.2065   -4.0517   -0.1678 N.pl3     1 <0>        -0.7907
     10 N4          0.3978   -1.2485   -1.2296 N.pl3     1 <0>        -0.7778
     11 C7          1.5731   -1.6721    1.3572 C.ar      1 <0>        -0.0544
     12 C8          1.6314   -0.2945    1.5689 C.ar      1 <0>        -0.0858
     13 C9          2.8182    0.2994    1.9502 C.ar      1 <0>        -0.0952
     14 C10         3.9555   -0.4660    2.1246 C.ar      1 <0>         0.0002
     15 C11         3.9095   -1.8464    1.9155 C.ar      1 <0>         0.0395
     16 C12         2.7126   -2.4503    1.5357 C.ar      1 <0>        -0.0910
     17 N5          5.0390   -2.6064    2.0881 N.2       1 <0>        -0.2188
     18 N6          5.3702   -3.4808    1.1994 N.2       1 <0>         0.1240
     19 N7          4.6678   -3.5501   -0.0108 N.pl3     1 <0>        -0.5640
     20 C13         4.3213   -2.3207   -0.7282 C.3       1 <0>         0.1062
     21 C14         5.4462   -1.9641   -1.7020 C.3       1 <0>         0.0482
     22 O1          5.6059   -3.0193   -2.6523 O.3       1 <0>        -0.3503
     23 C15         6.5594   -2.8615   -3.5838 C.2       1 <0>         0.4594
     24 O2          7.2360   -1.8605   -3.5920 O.2       1 <0>        -0.5054
     25 C16         6.7859   -3.9327   -4.6192 C.3       1 <0>        -0.1473
     26 C17         4.2798   -4.8521   -0.5590 C.3       1 <0>         0.1809
     27 C18         2.9628   -5.2764    0.0381 C.ar      1 <0>        -0.1084
     28 C19         2.9343   -5.9255    1.2582 C.ar      1 <0>        -0.0968
     29 C20         1.7262   -6.3146    1.8060 C.ar      1 <0>        -0.1116
     30 C21         0.5467   -6.0542    1.1338 C.ar      1 <0>        -0.1271
     31 C22         0.5752   -5.4043   -0.0859 C.ar      1 <0>        -0.1392
     32 C23         1.7829   -5.0114   -0.6316 C.ar      1 <0>        -0.0986
     33 Cl1         5.4436    0.2890    2.6036 Cl        1 <0>        -0.0176
     34 H1          0.4625   -1.3691    3.7361 H         1 <0>         0.0730
     35 H2         -1.1713   -1.9794    4.0916 H         1 <0>         0.0649
     36 H3          0.2010   -2.4595    5.1185 H         1 <0>         0.0891
     37 H4          1.2172   -3.6194    3.1354 H         1 <0>         0.1184
     38 H5         -0.3550   -4.3059    3.6100 H         1 <0>         0.1031
     39 H6         -3.5746   -3.8862   -1.0499 H         1 <0>         0.4460
     40 H7         -3.6737   -4.6344    0.4512 H         1 <0>         0.4307
     41 H8          1.1948   -0.7658   -0.9599 H         1 <0>         0.4291
     42 H9          0.0537   -1.1512   -2.1313 H         1 <0>         0.4295
     43 H10         0.7461    0.3091    1.4340 H         1 <0>         0.1438
     44 H11         2.8579    1.3664    2.1125 H         1 <0>         0.1553
     45 H12         2.6705   -3.5177    1.3767 H         1 <0>         0.1534
     46 H13         3.3952   -2.4722   -1.2826 H         1 <0>         0.0872
     47 H14         4.1882   -1.5084   -0.0137 H         1 <0>         0.0957
     48 H15         5.1960   -1.0403   -2.2236 H         1 <0>         0.0789
     49 H16         6.3760   -1.8290   -1.1494 H         1 <0>         0.0744
     50 H17         6.1593   -3.7355   -5.4891 H         1 <0>         0.1063
     51 H18         7.8340   -3.9325   -4.9189 H         1 <0>         0.1065
     52 H19         6.5284   -4.9048   -4.1987 H         1 <0>         0.0947
     53 H20         4.1800   -4.7753   -1.6417 H         1 <0>         0.1046
     54 H21         5.0437   -5.5908   -0.3161 H         1 <0>         0.0988
     55 H22         3.8558   -6.1289    1.7834 H         1 <0>         0.1320
     56 H23         1.7039   -6.8223    2.7589 H         1 <0>         0.1311
     57 H24        -0.3971   -6.3589    1.5614 H         1 <0>         0.1170
     58 H25        -0.3463   -5.2012   -0.6112 H         1 <0>         0.1079
     59 H26         1.8050   -4.5003   -1.5828 H         1 <0>         0.1219
     60 H27        -2.0103   -4.2896    2.0155 H         1 <0>         0.4411
@<TRIPOS>BOND
     1    1    2 1
     2    1   34 1
     3    1   35 1
     4    1   36 1
     5    2    3 1
     6    2   37 1
     7    2   38 1
     8    3    8 ar
     9    3    4 ar
    10    4    5 ar
    11    4   11 1
    12    5    6 ar
    13    5   10 1
    14    6    7 ar
    15    7    8 ar
    16    7    9 1
    17    8   60 1
    18    9   39 1
    19    9   40 1
    20   10   41 1
    21   10   42 1
    22   11   16 ar
    23   11   12 ar
    24   12   13 ar
    25   12   43 1
    26   13   14 ar
    27   13   44 1
    28   14   15 ar
    29   14   33 1
    30   15   16 ar
    31   15   17 1
    32   16   45 1
    33   17   18 2
    34   18   19 1
    35   19   20 1
    36   19   26 1
    37   20   21 1
    38   20   46 1
    39   20   47 1
    40   21   22 1
    41   21   48 1
    42   21   49 1
    43   22   23 1
    44   23   24 2
    45   23   25 1
    46   25   50 1
    47   25   51 1
    48   25   52 1
    49   26   27 1
    50   26   53 1
    51   26   54 1
    52   27   32 ar
    53   27   28 ar
    54   28   29 ar
    55   28   55 1
    56   29   30 ar
    57   29   56 1
    58   30   31 ar
    59   30   57 1
    60   31   32 ar
    61   31   58 1
    62   32   59 1
@<TRIPOS>MOLECULE
CHEMBL55764__1
   59    61     0     0     0
SMALL
USER_CHARGES

@<TRIPOS>ATOM
      1 C1          0.0021    5.4022    1.3957 C.3       1 <0>        -0.1462
      2 C2          1.0928    4.4582    0.8857 C.3       1 <0>        -0.0786
      3 C3          0.5363    3.5981   -0.2195 C.ar      1 <0>         0.2769
      4 C4         -0.0636    2.3750    0.0722 C.ar      1 <0>        -0.2823
      5 C5         -0.5681    1.6093   -0.9951 C.ar      1 <0>         0.5013
      6 N1         -0.4537    2.0792   -2.2320 N.ar      1 <0>        -0.6261
      7 C6          0.1249    3.2485   -2.4613 C.ar      1 <0>         0.6119
      8 N2          0.6061    3.9972   -1.4792 N.ar      1 <0>        -0.5959
      9 N3          0.2251    3.7041   -3.7637 N.pl3     1 <0>        -0.8217
     10 N4         -1.1728    0.3874   -0.7600 N.pl3     1 <0>        -0.8354
     11 C7         -0.1672    1.8926    1.4706 C.ar      1 <0>        -0.0061
     12 C8          0.7909    1.0157    1.9797 C.ar      1 <0>        -0.0925
     13 C9          0.6971    0.5652    3.2816 C.ar      1 <0>        -0.1019
     14 C10        -0.3454    0.9794    4.0885 C.ar      1 <0>        -0.0112
     15 C11        -1.3108    1.8573    3.5899 C.ar      1 <0>         0.0428
     16 C12        -1.2170    2.3184    2.2784 C.ar      1 <0>        -0.1156
     17 N5         -2.3463    2.2683    4.3911 N.2       1 <0>        -0.2528
     18 N6         -3.4552    2.6607    3.8614 N.2       1 <0>         0.1113
     19 N7         -3.8164    2.2166    2.5827 N.pl3     1 <0>        -0.5355
     20 C13        -3.2992    0.9429    2.0764 C.3       1 <0>         0.0828
     21 C14        -4.3530   -0.1491    2.2712 C.3       1 <0>         0.0533
     22 O1         -5.5042    0.1534    1.4805 O.3       1 <0>        -0.3492
     23 C15        -6.5656   -0.6574    1.6144 C.2       1 <0>         0.4584
     24 O2         -6.5536   -1.5365    2.4432 O.2       1 <0>        -0.5087
     25 C16        -7.7722   -0.4712    0.7309 C.3       1 <0>        -0.1475
     26 C17        -4.7114    3.0259    1.7519 C.3       1 <0>         0.1778
     27 C18        -3.8941    3.9435    0.8795 C.ar      1 <0>        -0.1221
     28 C19        -3.4812    5.1708    1.3633 C.ar      1 <0>        -0.1046
     29 C20        -2.7314    6.0125    0.5631 C.ar      1 <0>        -0.1127
     30 C21        -2.3943    5.6267   -0.7208 C.ar      1 <0>        -0.1009
     31 C22        -2.8064    4.3989   -1.2043 C.ar      1 <0>        -0.1118
     32 C23        -3.5525    3.5555   -0.4025 C.ar      1 <0>        -0.0976
     33 Cl1        -0.4558    0.4076    5.7239 Cl        1 <0>        -0.0410
     34 H1          0.4046    6.0243    2.1951 H         1 <0>         0.0616
     35 H2         -0.3402    6.0371    0.5785 H         1 <0>         0.0663
     36 H3         -0.8353    4.8176    1.7768 H         1 <0>         0.0570
     37 H4          1.9301    5.0428    0.5046 H         1 <0>         0.0861
     38 H5          1.4351    3.8233    1.7029 H         1 <0>         0.0808
     39 H6         -0.1256    3.1692   -4.4930 H         1 <0>         0.4132
     40 H7          0.6462    4.5584   -3.9477 H         1 <0>         0.4153
     41 H8         -1.1713    0.0094    0.1333 H         1 <0>         0.4080
     42 H9         -1.5981   -0.0914   -1.4885 H         1 <0>         0.4080
     43 H10         1.6078    0.6880    1.3539 H         1 <0>         0.1364
     44 H11         1.4414   -0.1139    3.6706 H         1 <0>         0.1439
     45 H12        -1.9584    3.0004    1.8892 H         1 <0>         0.1540
     46 H13        -3.0688    1.0403    1.0155 H         1 <0>         0.0930
     47 H14        -2.3940    0.6758    2.6217 H         1 <0>         0.1120
     48 H15        -3.9420   -1.1100    1.9618 H         1 <0>         0.0787
     49 H16        -4.6367   -0.1968    3.3226 H         1 <0>         0.0756
     50 H17        -7.6575   -1.0711   -0.1719 H         1 <0>         0.1056
     51 H18        -8.6671   -0.7881    1.2664 H         1 <0>         0.1039
     52 H19        -7.8647    0.5803    0.4590 H         1 <0>         0.0946
     53 H20        -5.3159    2.3710    1.1244 H         1 <0>         0.1026
     54 H21        -5.3640    3.6194    2.3923 H         1 <0>         0.0949
     55 H22        -3.7446    5.4723    2.3664 H         1 <0>         0.1215
     56 H23        -2.4094    6.9717    0.9408 H         1 <0>         0.1218
     57 H24        -1.8091    6.2845   -1.3462 H         1 <0>         0.1186
     58 H25        -2.5433    4.0976   -2.2074 H         1 <0>         0.1126
     59 H26        -3.8713    2.5947   -0.7789 H         1 <0>         0.1154
@<TRIPOS>BOND
     1    1    2 1
     2    1   34 1
     3    1   35 1
     4    1   36 1
     5    2    3 1
     6    2   37 1
     7    2   38 1
     8    3    8 ar
     9    3    4 ar
    10    4    5 ar
    11    4   11 1
    12    5    6 ar
    13    5   10 1
    14    6    7 ar
    15    7    8 ar
    16    7    9 1
    17    9   39 1
    18    9   40 1
    19   10   41 1
    20   10   42 1
    21   11   16 ar
    22   11   12 ar
    23   12   13 ar
    24   12   43 1
    25   13   14 ar
    26   13   44 1
    27   14   15 ar
    28   14   33 1
    29   15   16 ar
    30   15   17 1
    31   16   45 1
    32   17   18 2
    33   18   19 1
    34   19   20 1
    35   19   26 1
    36   20   21 1
    37   20   46 1
    38   20   47 1
    39   21   22 1
    40   21   48 1
    41   21   49 1
    42   22   23 1
    43   23   24 2
    44   23   25 1
    45   25   50 1
    46   25   51 1
    47   25   52 1
    48   26   27 1
    49   26   53 1
    50   26   54 1
    51   27   32 ar
    52   27   28 ar
    53   28   29 ar
    54   28   55 1
    55   29   30 ar
    56   29   56 1
    57   30   31 ar
    58   30   57 1
    59   31   32 ar
    60   31   58 1
    61   32   59 1
@<TRIPOS>MOLECULE
CHEMBL55764__2
   60    62     0     0     0
SMALL
USER_CHARGES

@<TRIPOS>ATOM
      1 C1         -0.1707   -1.6905    0.8833 C.3       1 <0>        -0.1537
      2 C2         -0.0179   -0.3855    0.0992 C.3       1 <0>        -0.1057
      3 C3          0.8044   -0.6365   -1.1385 C.ar      1 <0>         0.2541
      4 C4          2.1958   -0.5984   -1.0811 C.ar      1 <0>        -0.1890
      5 C5          2.9181   -0.8400   -2.2643 C.ar      1 <0>         0.5406
      6 N1          2.2496   -1.0935   -3.3835 N.ar      1 <0>        -0.5743
      7 C6          0.9252   -1.1194   -3.3900 C.ar      1 <0>         0.6662
      8 N2          0.2143   -0.9014   -2.2929 N.ar      1 <0>        -0.5689
      9 N3          0.2648   -1.3872   -4.5758 N.pl3     1 <0>        -0.7907
     10 N4          4.3013   -0.8135   -2.2618 N.pl3     1 <0>        -0.7720
     11 C7          2.8972   -0.3103    0.1933 C.ar      1 <0>        -0.0549
     12 C8          2.8209    0.9619    0.7605 C.ar      1 <0>        -0.0876
     13 C9          3.4726    1.2329    1.9472 C.ar      1 <0>        -0.0920
     14 C10         4.2044    0.2466    2.5809 C.ar      1 <0>         0.0086
     15 C11         4.2881   -1.0312    2.0227 C.ar      1 <0>         0.1294
     16 C12         3.6276   -1.3102    0.8280 C.ar      1 <0>        -0.1130
     17 N5          5.0151   -2.0104    2.6517 N.2       1 <0>        -0.3314
     18 N6          5.0913   -3.1898    2.1347 N.2       1 <0>         0.0540
     19 N7          5.8335   -4.1896    2.7769 N.pl3     1 <0>        -0.4589
     20 C13         5.9201   -5.5290    2.1897 C.3       1 <0>         0.1479
     21 C14         7.1928   -5.6352    1.3472 C.3       1 <0>         0.0443
     22 O1          8.3367   -5.5198    2.1958 O.3       1 <0>        -0.3523
     23 C15         9.5413   -5.5928    1.6080 C.2       1 <0>         0.4616
     24 O2          9.6217   -5.7496    0.4127 O.2       1 <0>        -0.5105
     25 C16        10.7933   -5.4793    2.4390 C.3       1 <0>        -0.1493
     26 C17         6.5231   -3.8956    4.0356 C.3       1 <0>         0.1354
     27 C18         5.6493   -4.3024    5.1940 C.ar      1 <0>        -0.1112
     28 C19         4.7541   -3.3988    5.7353 C.ar      1 <0>        -0.0980
     29 C20         3.9525   -3.7720    6.7979 C.ar      1 <0>        -0.1228
     30 C21         4.0458   -5.0490    7.3189 C.ar      1 <0>        -0.1118
     31 C22         4.9404   -5.9529    6.7771 C.ar      1 <0>        -0.1209
     32 C23         5.7389   -5.5811    5.7117 C.ar      1 <0>        -0.1059
     33 Cl1         5.0210    0.5961    4.0724 Cl        1 <0>        -0.0270
     34 H1         -0.6062   -2.4532    0.2378 H         1 <0>         0.0623
     35 H2          0.8079   -2.0230    1.2296 H         1 <0>         0.0713
     36 H3         -0.8226   -1.5248    1.7409 H         1 <0>         0.0886
     37 H4         -1.0026   -0.0164   -0.1874 H         1 <0>         0.1051
     38 H5          0.4810    0.3565    0.7225 H         1 <0>         0.1236
     39 H6          0.7713   -1.5525   -5.3864 H         1 <0>         0.4455
     40 H7         -0.7047   -1.4096   -4.5966 H         1 <0>         0.4306
     41 H8          4.7814   -0.6271   -1.4398 H         1 <0>         0.4319
     42 H9          4.7911   -0.9812   -3.0821 H         1 <0>         0.4289
     43 H10         2.2509    1.7370    0.2698 H         1 <0>         0.1403
     44 H11         3.4106    2.2196    2.3818 H         1 <0>         0.1522
     45 H12         3.6857   -2.2975    0.3941 H         1 <0>         0.1416
     46 H13         5.9479   -6.2734    2.9855 H         1 <0>         0.1040
     47 H14         5.0499   -5.7054    1.5574 H         1 <0>         0.1099
     48 H15         7.2129   -6.5995    0.8394 H         1 <0>         0.0860
     49 H16         7.2067   -4.8347    0.6076 H         1 <0>         0.0720
     50 H17        11.0987   -6.4708    2.7732 H         1 <0>         0.1087
     51 H18        11.5887   -5.0371    1.8391 H         1 <0>         0.1050
     52 H19        10.5981   -4.8479    3.3058 H         1 <0>         0.0950
     53 H20         7.4602   -4.4509    4.0748 H         1 <0>         0.1011
     54 H21         6.7311   -2.8273    4.0950 H         1 <0>         0.0985
     55 H22         4.6812   -2.4011    5.3282 H         1 <0>         0.1249
     56 H23         3.2536   -3.0658    7.2212 H         1 <0>         0.1214
     57 H24         3.4201   -5.3403    8.1496 H         1 <0>         0.1229
     58 H25         5.0135   -6.9505    7.1844 H         1 <0>         0.1241
     59 H26         6.4351   -6.2884    5.2859 H         1 <0>         0.1223
     60 H27        -0.7542   -0.9331   -2.3376 H         1 <0>         0.4420
@<TRIPOS>BOND
     1    1    2 1
     2    1   34 1
     3    1   35 1
     4    1   36 1
     5    2    3 1
     6    2   37 1
     7    2   38 1
     8    3    8 ar
     9    3    4 ar
    10    4    5 ar
    11    4   11 1
    12    5    6 ar
    13    5   10 1
    14    6    7 ar
    15    7    8 ar
    16    7    9 1
    17    8   60 1
    18    9   39 1
    19    9   40 1
    20   10   41 1
    21   10   42 1
    22   11   16 ar
    23   11   12 ar
    24   12   13 ar
    25   12   43 1
    26   13   14 ar
    27   13   44 1
    28   14   15 ar
    29   14   33 1
    30   15   16 ar
    31   15   17 1
    32   16   45 1
    33   17   18 2
    34   18   19 1
    35   19   20 1
    36   19   26 1
    37   20   21 1
    38   20   46 1
    39   20   47 1
    40   21   22 1
    41   21   48 1
    42   21   49 1
    43   22   23 1
    44   23   24 2
    45   23   25 1
    46   25   50 1
    47   25   51 1
    48   25   52 1
    49   26   27 1
    50   26   53 1
    51   26   54 1
    52   27   32 ar
    53   27   28 ar
    54   28   29 ar
    55   28   55 1
    56   29   30 ar
    57   29   56 1
    58   30   31 ar
    59   30   57 1
    60   31   32 ar
    61   31   58 1
    62   32   59 1
@<TRIPOS>MOLECULE
CHEMBL55764__3
   59    61     0     0     0
SMALL
USER_CHARGES

@<TRIPOS>ATOM
      1 C1         -0.0187    1.5258    0.0104 C.3       1 <0>        -0.1411
      2 C2          0.0021   -0.0041    0.0020 C.3       1 <0>        -0.0811
      3 C3         -1.4117   -0.5257    0.0127 C.ar      1 <0>         0.2694
      4 C4         -2.0643   -0.7709    1.2189 C.ar      1 <0>        -0.2862
      5 C5         -3.3841   -1.2571    1.1753 C.ar      1 <0>         0.4988
      6 N1         -3.9533   -1.4623   -0.0069 N.ar      1 <0>        -0.6303
      7 C6         -3.2933   -1.2146   -1.1284 C.ar      1 <0>         0.6111
      8 N2         -2.0514   -0.7516   -1.1233 N.ar      1 <0>        -0.6023
      9 N3         -3.9205   -1.4410   -2.3405 N.pl3     1 <0>        -0.8188
     10 N4         -4.0768   -1.5174    2.3442 N.pl3     1 <0>        -0.8301
     11 C7         -1.3858   -0.5265    2.5146 C.ar      1 <0>         0.0009
     12 C8         -0.2665   -1.2795    2.8699 C.ar      1 <0>        -0.0941
     13 C9          0.3675   -1.0537    4.0756 C.ar      1 <0>        -0.0982
     14 C10        -0.1018   -0.0811    4.9379 C.ar      1 <0>        -0.0045
     15 C11        -1.2217    0.6793    4.5931 C.ar      1 <0>         0.1144
     16 C12        -1.8612    0.4582    3.3751 C.ar      1 <0>        -0.1177
     17 N5         -1.6880    1.6447    5.4496 N.2       1 <0>        -0.3184
     18 N6         -2.7223    2.3459    5.1295 N.2       1 <0>         0.0497
     19 N7         -3.1984    3.3316    6.0039 N.pl3     1 <0>        -0.4750
     20 C13        -4.3731    4.1279    5.6404 C.3       1 <0>         0.1523
     21 C14        -5.6258    3.4975    6.2520 C.3       1 <0>         0.0439
     22 O1         -5.5474    3.5682    7.6771 O.3       1 <0>        -0.3512
     23 C15        -6.5758    3.0548    8.3703 C.2       1 <0>         0.4594
     24 O2         -7.5116    2.5616    7.7864 O.2       1 <0>        -0.5114
     25 C16        -6.5632    3.0934    9.8767 C.3       1 <0>        -0.1482
     26 C17        -2.5215    3.5659    7.2819 C.3       1 <0>         0.1377
     27 C18        -1.5311    4.6912    7.1269 C.ar      1 <0>        -0.1067
     28 C19        -0.2304    4.4195    6.7457 C.ar      1 <0>        -0.0965
     29 C20         0.6780    5.4517    6.6035 C.ar      1 <0>        -0.1225
     30 C21         0.2856    6.7556    6.8420 C.ar      1 <0>        -0.1156
     31 C22        -1.0153    7.0273    7.2224 C.ar      1 <0>        -0.1235
     32 C23        -1.9249    5.9955    7.3604 C.ar      1 <0>        -0.1077
     33 Cl1         0.7012    0.1956    6.4520 Cl        1 <0>        -0.0497
     34 H1          1.0039    1.9031    0.0027 H         1 <0>         0.0655
     35 H2         -0.5459    1.8868   -0.8726 H         1 <0>         0.0591
     36 H3         -0.5289    1.8773    0.9072 H         1 <0>         0.0550
     37 H4          0.5123   -0.3556   -0.8948 H         1 <0>         0.0878
     38 H5          0.5293   -0.3651    0.8851 H         1 <0>         0.0880
     39 H6         -4.8305   -1.7763   -2.3606 H         1 <0>         0.4140
     40 H7         -3.4503   -1.2645   -3.1703 H         1 <0>         0.4159
     41 H8         -3.6530   -1.3650    3.2033 H         1 <0>         0.4120
     42 H9         -4.9862   -1.8524    2.3047 H         1 <0>         0.4079
     43 H10         0.1048   -2.0412    2.2004 H         1 <0>         0.1359
     44 H11         1.2335   -1.6398    4.3459 H         1 <0>         0.1431
     45 H12        -2.7250    1.0460    3.1018 H         1 <0>         0.1371
     46 H13        -4.2552    5.1431    6.0193 H         1 <0>         0.0985
     47 H14        -4.4724    4.1544    4.5553 H         1 <0>         0.1096
     48 H15        -6.5085    4.0374    5.9095 H         1 <0>         0.0834
     49 H16        -5.6953    2.4544    5.9433 H         1 <0>         0.0740
     50 H17        -7.0297    4.0167   10.2204 H         1 <0>         0.1063
     51 H18        -7.1171    2.2395   10.2667 H         1 <0>         0.1032
     52 H19        -5.5338    3.0521   10.2327 H         1 <0>         0.0944
     53 H20        -3.2582    3.8321    8.0398 H         1 <0>         0.0960
     54 H21        -1.9974    2.6601    7.5869 H         1 <0>         0.0962
     55 H22         0.0761    3.4009    6.5593 H         1 <0>         0.1269
     56 H23         1.6944    5.2395    6.3063 H         1 <0>         0.1206
     57 H24         0.9955    7.5619    6.7316 H         1 <0>         0.1206
     58 H25        -1.3218    8.0459    7.4091 H         1 <0>         0.1214
     59 H26        -2.9423    6.2081    7.6539 H         1 <0>         0.1209
@<TRIPOS>BOND
     1    1    2 1
     2    1   34 1
     3    1   35 1
     4    1   36 1
     5    2    3 1
     6    2   37 1
     7    2   38 1
     8    3    8 ar
     9    3    4 ar
    10    4    5 ar
    11    4   11 1
    12    5    6 ar
    13    5   10 1
    14    6    7 ar
    15    7    8 ar
    16    7    9 1
    17    9   39 1
    18    9   40 1
    19   10   41 1
    20   10   42 1
    21   11   16 ar
    22   11   12 ar
    23   12   13 ar
    24   12   43 1
    25   13   14 ar
    26   13   44 1
    27   14   15 ar
    28   14   33 1
    29   15   16 ar
    30   15   17 1
    31   16   45 1
    32   17   18 2
    33   18   19 1
    34   19   20 1
    35   19   26 1
    36   20   21 1
    37   20   46 1
    38   20   47 1
    39   21   22 1
    40   21   48 1
    41   21   49 1
    42   22   23 1
    43   23   24 2
    44   23   25 1
    45   25   50 1
    46   25   51 1
    47   25   52 1
    48   26   27 1
    49   26   53 1
    50   26   54 1
    51   27   32 ar
    52   27   28 ar
    53   28   29 ar
    54   28   55 1
    55   29   30 ar
    56   29   56 1
    57   30   31 ar
    58   30   57 1
    59   31   32 ar
    60   31   58 1
    61   32   59 1
@<TRIPOS>MOLECULE
CHEMBL145628
   36    39     0     0     0
SMALL
USER_CHARGES

@<TRIPOS>ATOM
      1 C1          6.9454    2.7176   -2.5540 C.ar      1 <0>        -0.1023
      2 C2          5.9594    2.1765   -1.7502 C.ar      1 <0>        -0.0730
      3 C3          5.1208    3.0065   -1.0307 C.ar      1 <0>        -0.1088
      4 C4          5.2680    4.3800   -1.1142 C.ar      1 <0>        -0.0054
      5 C5          6.2546    4.9219   -1.9178 C.ar      1 <0>        -0.1026
      6 C6          7.0935    4.0904   -2.6382 C.ar      1 <0>        -0.0137
      7 Cl1         8.3322    4.7698   -3.6471 Cl        1 <0>        -0.0473
      8 Cl2         4.2141    5.4225   -0.2107 Cl        1 <0>        -0.0502
      9 C7          4.0455    2.4159   -0.1555 C.3       1 <0>         0.1427
     10 N1          4.5478    2.2855    1.2145 N.pl3     1 <0>        -0.4366
     11 C8          4.3368    3.1779    2.2245 C.2       1 <0>         0.0892
     12 C9          4.9422    2.7411    3.3463 C.2       1 <0>        -0.2212
     13 C10         5.5703    1.5155    3.0479 C.ar      1 <0>        -0.0068
     14 C11         5.3048    1.2391    1.6932 C.ar      1 <0>        -0.0307
     15 C12         5.8093    0.0690    1.1305 C.ar      1 <0>         0.2285
     16 N2          6.5221   -0.7881    1.8221 N.ar      1 <0>        -0.4779
     17 C13         6.8198   -0.6094    3.1117 C.ar      1 <0>         0.4057
     18 C14         6.3691    0.5491    3.7879 C.ar      1 <0>        -0.2555
     19 C15         6.6963    0.7121    5.1475 C.ar      1 <0>         0.5161
     20 N3          7.4309   -0.2244    5.7357 N.ar      1 <0>        -0.6324
     21 C16         7.8504   -1.2916    5.0642 C.ar      1 <0>         0.6211
     22 N4          7.5508   -1.5011    3.7957 N.ar      1 <0>        -0.5929
     23 N5          8.6133   -2.2347    5.7290 N.pl3     1 <0>        -0.8173
     24 N6          6.2644    1.8182    5.8513 N.pl3     1 <0>        -0.8242
     25 H1          7.6031    2.0683   -3.1129 H         1 <0>         0.1468
     26 H2          5.8441    1.1046   -1.6848 H         1 <0>         0.1457
     27 H3          6.3698    5.9938   -1.9832 H         1 <0>         0.1486
     28 H4          3.1726    3.0686   -0.1619 H         1 <0>         0.1134
     29 H5          3.7670    1.4329   -0.5355 H         1 <0>         0.1106
     30 H6          3.7717    4.0943    2.1381 H         1 <0>         0.1744
     31 H7          4.9459    3.2415    4.3033 H         1 <0>         0.1462
     32 H8          5.6067   -0.1397    0.0904 H         1 <0>         0.1573
     33 H9          8.8314   -2.1093    6.6658 H         1 <0>         0.4141
     34 H10         8.9302   -3.0215    5.2584 H         1 <0>         0.4165
     35 H11         5.6208    2.4252    5.4536 H         1 <0>         0.4125
     36 H12         6.6046    1.9885    6.7436 H         1 <0>         0.4092
@<TRIPOS>BOND
     1    1    6 ar
     2    1    2 ar
     3    1   25 1
     4    2    3 ar
     5    2   26 1
     6    3    4 ar
     7    3    9 1
     8    4    5 ar
     9    4    8 1
    10    5    6 ar
    11    5   27 1
    12    6    7 1
    13    9   10 1
    14    9   28 1
    15    9   29 1
    16   10   14 1
    17   10   11 1
    18   11   12 2
    19   11   30 1
    20   12   13 1
    21   12   31 1
    22   13   18 ar
    23   13   14 ar
    24   14   15 ar
    25   15   16 ar
    26   15   32 1
    27   16   17 ar
    28   17   22 ar
    29   17   18 ar
    30   18   19 ar
    31   19   20 ar
    32   19   24 1
    33   20   21 ar
    34   21   22 ar
    35   21   23 1
    36   23   33 1
    37   23   34 1
    38   24   35 1
    39   24   36 1
@<TRIPOS>MOLECULE
CHEMBL388879
   70    73     0     0     0
SMALL
USER_CHARGES

@<TRIPOS>ATOM
      1 C1         -0.0178    1.4608    0.0101 C.3       1 <0>         0.0927
      2 N1          0.0021   -0.0041    0.0020 N.pl3     1 <0>        -0.6206
      3 C2          0.0241   -0.7433    1.2666 C.3       1 <0>         0.1826
      4 C3         -1.3889   -1.0161    1.7137 C.ar      1 <0>         0.0268
      5 C4         -1.9892   -2.2351    1.3999 C.ar      1 <0>         0.1545
      6 N2         -3.2219   -2.4965    1.7797 N.ar      1 <0>        -0.4379
      7 C5         -3.9051   -1.5830    2.4739 C.ar      1 <0>         0.3732
      8 C6         -3.2902   -0.3458    2.7901 C.ar      1 <0>        -0.0919
      9 N3         -2.0425   -0.1038    2.4012 N.ar      1 <0>        -0.3712
     10 C7         -4.0706    0.6301    3.5527 C.ar      1 <0>         0.5437
     11 N4         -5.3055    0.2953    3.9004 N.ar      1 <0>        -0.6293
     12 C8         -5.8196   -0.8850    3.5693 C.ar      1 <0>         0.6381
     13 N5         -5.1609   -1.7987    2.8845 N.ar      1 <0>        -0.6002
     14 N6         -7.1130   -1.1692    3.9639 N.pl3     1 <0>        -0.8085
     15 N7         -3.5402    1.8539    3.8976 N.pl3     1 <0>        -0.7932
     16 C9          0.0000   -0.6928   -1.2059 C.ar      1 <0>         0.2264
     17 C10         0.0132   -2.0849   -1.2118 C.ar      1 <0>        -0.2110
     18 C11         0.0112   -2.7693   -2.4056 C.ar      1 <0>        -0.0118
     19 C12        -0.0041   -2.0653   -3.6133 C.ar      1 <0>        -0.1703
     20 C13        -0.0173   -0.6674   -3.6040 C.ar      1 <0>        -0.0366
     21 C14        -0.0210    0.0112   -2.4068 C.ar      1 <0>        -0.2013
     22 C15        -0.0058   -2.7960   -4.8948 C.2       1 <0>         0.5617
     23 O1          0.0061   -4.0119   -4.9015 O.2       1 <0>        -0.5504
     24 N8         -0.0205   -2.1158   -6.0583 N.am      1 <0>        -0.6927
     25 C16        -0.0222   -2.8414   -7.3310 C.3       1 <0>         0.0769
     26 H1         -0.6020   -3.7584   -7.2256 H         1 <0>         0.0841
     27 C17        -0.6480   -1.9644   -8.4172 C.3       1 <0>        -0.0916
     28 C18        -2.1222   -1.7198   -8.0888 C.3       1 <0>        -0.1291
     29 C19        -2.7386   -0.8559   -9.1588 C.2       1 <0>         0.5369
     30 O2         -2.0651   -0.4735  -10.0921 O.2       1 <0>        -0.5140
     31 N9         -4.0383   -0.5082   -9.0785 N.am      1 <0>        -0.6103
     32 C20        -4.9664   -0.8959   -8.0007 C.3       1 <0>         0.0994
     33 C21        -6.0664    0.1948   -8.0132 C.3       1 <0>        -0.1343
     34 C22        -6.2105    0.4744   -9.5325 C.3       1 <0>        -0.1252
     35 C23        -4.7637    0.3257  -10.0480 C.3       1 <0>         0.1339
     36 H2         -4.7680   -0.1593  -11.0241 H         1 <0>         0.1060
     37 C24        -4.1109    1.6803  -10.1485 C.2       1 <0>         0.5144
     38 O3         -3.1327    1.9333   -9.4777 O.2       1 <0>        -0.4892
     39 N10        -4.6142    2.6106  -10.9837 N.am      1 <0>        -0.6005
     40 O4         -4.0009    3.8834  -11.0781 O.3       1 <0>        -0.3181
     41 C25         1.3940   -3.1839   -7.7158 C.2       1 <0>         0.4920
     42 O5          2.3190   -2.8526   -6.9939 O.co2     1 <0>        -0.6838
     43 O6          1.6147   -3.7923   -8.7491 O.co2     1 <0>        -0.6975
     44 H3          1.0048    1.8381    0.0023 H         1 <0>         0.0525
     45 H4         -0.5450    1.8219   -0.8730 H         1 <0>         0.0682
     46 H5         -0.5280    1.8123    0.9069 H         1 <0>         0.0683
     47 H6          0.5496   -1.6879    1.1262 H         1 <0>         0.1023
     48 H7          0.5371   -0.1514    2.0246 H         1 <0>         0.0971
     49 H8         -1.4361   -2.9733    0.8382 H         1 <0>         0.1804
     50 H9         -7.6209   -0.5150    4.4689 H         1 <0>         0.4159
     51 H10        -7.5132   -2.0229    3.7358 H         1 <0>         0.4194
     52 H11        -2.6346    2.0814    3.6347 H         1 <0>         0.4251
     53 H12        -4.0722    2.4880    4.4032 H         1 <0>         0.4151
     54 H13         0.0253   -2.6282   -0.2785 H         1 <0>         0.1234
     55 H14         0.0217   -3.8493   -2.4096 H         1 <0>         0.1359
     56 H15        -0.0287   -0.1208   -4.5353 H         1 <0>         0.1245
     57 H16        -0.0359    1.0910   -2.3989 H         1 <0>         0.1249
     58 H17        -0.0300   -1.1459   -6.0530 H         1 <0>         0.3877
     59 H18        -0.1225   -1.0104   -8.4615 H         1 <0>         0.0683
     60 H19        -0.5691   -2.4677   -9.3808 H         1 <0>         0.0901
     61 H20        -2.6477   -2.6737   -8.0445 H         1 <0>         0.0926
     62 H21        -2.2011   -1.2164   -7.1252 H         1 <0>         0.0896
     63 H22        -5.4000   -1.8744   -8.2071 H         1 <0>         0.0768
     64 H23        -4.4506   -0.9035   -7.0404 H         1 <0>         0.0835
     65 H24        -6.9986   -0.1857   -7.5958 H         1 <0>         0.0911
     66 H25        -5.7375    1.0875   -7.4811 H         1 <0>         0.0783
     67 H26        -6.8674   -0.2598   -9.9991 H         1 <0>         0.0943
     68 H27        -6.5770    1.4863   -9.7054 H         1 <0>         0.0845
     69 H28        -5.3966    2.4083  -11.5202 H         1 <0>         0.4043
     70 H29        -4.4324    4.4826  -11.7025 H         1 <0>         0.3833
@<TRIPOS>BOND
     1    1    2 1
     2    1   44 1
     3    1   45 1
     4    1   46 1
     5    2    3 1
     6    2   16 1
     7    3    4 1
     8    3   47 1
     9    3   48 1
    10    4    9 ar
    11    4    5 ar
    12    5    6 ar
    13    5   49 1
    14    6    7 ar
    15    7   13 ar
    16    7    8 ar
    17    8    9 ar
    18    8   10 ar
    19   10   11 ar
    20   10   15 1
    21   11   12 ar
    22   12   13 ar
    23   12   14 1
    24   14   50 1
    25   14   51 1
    26   15   52 1
    27   15   53 1
    28   16   21 ar
    29   16   17 ar
    30   17   18 ar
    31   17   54 1
    32   18   19 ar
    33   18   55 1
    34   19   20 ar
    35   19   22 1
    36   20   21 ar
    37   20   56 1
    38   21   57 1
    39   22   23 2
    40   22   24 am
    41   24   25 1
    42   24   58 1
    43   25   26 1
    44   25   27 1
    45   25   41 1
    46   27   28 1
    47   27   59 1
    48   27   60 1
    49   28   29 1
    50   28   61 1
    51   28   62 1
    52   29   30 2
    53   29   31 am
    54   31   35 1
    55   31   32 1
    56   32   33 1
    57   32   63 1
    58   32   64 1
    59   33   34 1
    60   33   65 1
    61   33   66 1
    62   34   35 1
    63   34   67 1
    64   34   68 1
    65   35   36 1
    66   35   37 1
    67   37   38 2
    68   37   39 am
    69   39   40 1
    70   39   69 1
    71   40   70 1
    72   41   42 2
    73   41   43 1
@<TRIPOS>MOLECULE
CHEMBL1090897
   53    56     0     0     0
SMALL
USER_CHARGES

@<TRIPOS>ATOM
      1 C1         -0.0225    1.8097    0.0120 C.3       1 <0>        -0.1375
      2 S1          0.0021   -0.0041    0.0020 S.3       1 <0>        -0.0253
      3 C2         -1.7016   -0.4536    0.0159 C.2       1 <0>         0.3563
      4 N1         -2.5987    0.5003    0.0242 N.2       1 <0>        -0.5150
      5 C3         -3.9256    0.2255    0.0351 C.ar      1 <0>         0.1053
      6 C4         -4.8822    1.2447    0.0435 C.ar      1 <0>        -0.0591
      7 C5         -6.2110    0.9312    0.0540 C.ar      1 <0>        -0.1430
      8 C6         -6.6334   -0.3982    0.0568 C.ar      1 <0>         0.2036
      9 C7         -5.7087   -1.4272    0.0491 C.ar      1 <0>        -0.1235
     10 C8         -4.3479   -1.1230    0.0374 C.ar      1 <0>        -0.1428
     11 C9         -3.3199   -2.1726    0.0279 C.2       1 <0>         0.5545
     12 O1         -3.6222   -3.3519    0.0290 O.2       1 <0>        -0.5058
     13 N2         -2.0248   -1.7808    0.0118 N.am      1 <0>        -0.5212
     14 C10        -0.9610   -2.7879   -0.0042 C.3       1 <0>         0.1333
     15 C11        -0.5821   -3.1410    1.4110 C.ar      1 <0>        -0.1214
     16 C12         0.4108   -2.4298    2.0586 C.ar      1 <0>        -0.0976
     17 C13         0.7584   -2.7536    3.3567 C.ar      1 <0>        -0.1240
     18 C14         0.1128   -3.7884    4.0074 C.ar      1 <0>        -0.1082
     19 C15        -0.8807   -4.4990    3.3601 C.ar      1 <0>        -0.1251
     20 C16        -1.2312   -4.1723    2.0635 C.ar      1 <0>        -0.0914
     21 N3         -8.0012   -0.6929    0.0681 N.pl3     1 <0>        -0.7421
     22 C17        -8.9844    0.3931    0.0768 C.3       1 <0>         0.1556
     23 C18       -10.3748   -0.1881    0.0881 C.2       1 <0>        -0.1703
     24 C19       -11.2325    0.1633    1.0358 C.2       1 <0>        -0.0889
     25 C20       -12.5962   -0.4068    1.0469 C.ar      1 <0>        -0.0651
     26 C21       -12.9820   -1.3195    0.0645 C.ar      1 <0>        -0.1118
     27 C22       -14.2564   -1.8480    0.0804 C.ar      1 <0>        -0.1191
     28 C23       -15.1511   -1.4745    1.0673 C.ar      1 <0>        -0.1162
     29 C24       -14.7749   -0.5697    2.0439 C.ar      1 <0>        -0.1196
     30 C25       -13.5013   -0.0390    2.0431 C.ar      1 <0>        -0.1056
     31 H1          1.0001    2.1870    0.0043 H         1 <0>         0.1127
     32 H2         -0.5497    2.1708   -0.8711 H         1 <0>         0.0937
     33 H3         -0.5327    2.1613    0.9088 H         1 <0>         0.0939
     34 H4         -4.5706    2.2788    0.0422 H         1 <0>         0.1390
     35 H5         -6.9451    1.7234    0.0604 H         1 <0>         0.1332
     36 H6         -6.0375   -2.4559    0.0520 H         1 <0>         0.1363
     37 H7         -1.3140   -3.6812   -0.5195 H         1 <0>         0.1117
     38 H8         -0.0904   -2.3885   -0.5246 H         1 <0>         0.1068
     39 H9          0.9152   -1.6214    1.5502 H         1 <0>         0.1338
     40 H10         1.5345   -2.1985    3.8624 H         1 <0>         0.1255
     41 H11         0.3848   -4.0419    5.0214 H         1 <0>         0.1234
     42 H12        -1.3849   -5.3076    3.8684 H         1 <0>         0.1238
     43 H13        -2.0100   -4.7251    1.5590 H         1 <0>         0.1281
     44 H14        -8.2984   -1.6162    0.0701 H         1 <0>         0.4037
     45 H15        -8.8400    1.0069    0.9659 H         1 <0>         0.0668
     46 H16        -8.8548    1.0078   -0.8140 H         1 <0>         0.0727
     47 H17       -10.6724   -0.8910   -0.6760 H         1 <0>         0.1209
     48 H18       -10.9348    0.8662    1.7999 H         1 <0>         0.1227
     49 H19       -12.2847   -1.6114   -0.7069 H         1 <0>         0.1243
     50 H20       -14.5563   -2.5545   -0.6794 H         1 <0>         0.1244
     51 H21       -16.1476   -1.8907    1.0752 H         1 <0>         0.1235
     52 H22       -15.4782   -0.2816    2.8113 H         1 <0>         0.1250
     53 H23       -13.2071    0.6633    2.8091 H         1 <0>         0.1250
@<TRIPOS>BOND
     1    1    2 1
     2    1   31 1
     3    1   32 1
     4    1   33 1
     5    2    3 1
     6    3   13 1
     7    3    4 2
     8    4    5 1
     9    5   10 ar
    10    5    6 ar
    11    6    7 ar
    12    6   34 1
    13    7    8 ar
    14    7   35 1
    15    8    9 ar
    16    8   21 1
    17    9   10 ar
    18    9   36 1
    19   10   11 1
    20   11   12 2
    21   11   13 am
    22   13   14 1
    23   14   15 1
    24   14   37 1
    25   14   38 1
    26   15   20 ar
    27   15   16 ar
    28   16   17 ar
    29   16   39 1
    30   17   18 ar
    31   17   40 1
    32   18   19 ar
    33   18   41 1
    34   19   20 ar
    35   19   42 1
    36   20   43 1
    37   21   22 1
    38   21   44 1
    39   22   23 1
    40   22   45 1
    41   22   46 1
    42   23   24 2
    43   23   47 1
    44   24   25 1
    45   24   48 1
    46   25   30 ar
    47   25   26 ar
    48   26   27 ar
    49   26   49 1
    50   27   28 ar
    51   27   50 1
    52   28   29 ar
    53   28   51 1
    54   29   30 ar
    55   29   52 1
    56   30   53 1
@<TRIPOS>MOLECULE
CHEMBL109229
   57    60     0     0     0
SMALL
USER_CHARGES

@<TRIPOS>ATOM
      1 C1         -1.2080    2.2431   -0.0147 C.ar      1 <0>        -0.1213
      2 C2         -0.1766    3.1578   -0.0667 C.ar      1 <0>        -0.0633
      3 C3          1.1387    2.7143   -0.2137 C.ar      1 <0>        -0.0952
      4 C4          1.4012    1.3466   -0.3072 C.ar      1 <0>        -0.0822
      5 C5          0.3606    0.4424   -0.2538 C.ar      1 <0>        -0.1208
      6 C6         -0.9409    0.8887   -0.1079 C.ar      1 <0>        -0.0881
      7 C7         -2.0726   -0.1048   -0.0503 C.3       1 <0>        -0.0403
      8 C8         -1.8567   -1.0659    1.1249 C.3       1 <0>        -0.1184
      9 C9         -3.1204   -1.9078    1.2954 C.3       1 <0>        -0.1196
     10 C10        -3.5325   -2.5156   -0.0164 C.ar      1 <0>         0.0566
     11 C11        -3.0790   -2.0643   -1.2194 C.ar      1 <0>        -0.1232
     12 C12        -3.5182   -2.6801   -2.3931 C.ar      1 <0>         0.2232
     13 N1         -4.3559   -3.6896   -2.3820 N.ar      1 <0>        -0.4979
     14 C13        -4.8295   -4.1785   -1.2360 C.ar      1 <0>         0.3863
     15 C14        -4.4270   -3.5977   -0.0098 C.ar      1 <0>        -0.2328
     16 C15        -4.9456   -4.1319    1.1959 C.ar      1 <0>         0.5767
     17 N2         -5.7850   -5.1549    1.1177 N.ar      1 <0>        -0.5811
     18 C16        -6.1365   -5.6726   -0.0558 C.ar      1 <0>         0.6944
     19 N3         -5.6834   -5.2115   -1.2067 N.ar      1 <0>        -0.5682
     20 N4         -7.0149   -6.7391   -0.0710 N.pl3     1 <0>        -0.7853
     21 N5         -4.5869   -3.6027    2.4161 N.pl3     1 <0>        -0.8063
     22 C17        -2.1064   -0.9214   -1.3407 C.3       1 <0>        -0.0836
     23 C18         2.2489    3.6889   -0.2707 C.2       1 <0>         0.5420
     24 O1          2.0173    4.8794   -0.1895 O.2       1 <0>        -0.5508
     25 N6          3.5178    3.2575   -0.4127 N.am      1 <0>        -0.6708
     26 C19         4.6179    4.2233   -0.4692 C.3       1 <0>         0.0716
     27 C20         5.7978    3.6088   -1.2250 C.3       1 <0>        -0.0820
     28 C21         5.3987    3.3643   -2.6817 C.3       1 <0>        -0.1768
     29 C22         6.5608    2.7590   -3.4261 C.2       1 <0>         0.4901
     30 O2          7.6109    2.5432   -2.8454 O.co2     1 <0>        -0.6954
     31 O3          6.4508    2.4851   -4.6091 O.co2     1 <0>        -0.7193
     32 C23         5.0479    4.5773    0.9311 C.2       1 <0>         0.4971
     33 O4          4.6194    3.9420    1.8794 O.co2     1 <0>        -0.7000
     34 O5          5.8243    5.4991    1.1157 O.co2     1 <0>        -0.6961
     35 H1         -2.2257    2.5847    0.1035 H         1 <0>         0.1224
     36 H2         -0.3864    4.2147    0.0058 H         1 <0>         0.1367
     37 H3          2.4166    0.9970   -0.4214 H         1 <0>         0.1318
     38 H4          0.5623   -0.6161   -0.3260 H         1 <0>         0.1222
     39 H5         -3.0181    0.4228    0.0752 H         1 <0>         0.0860
     40 H6         -1.0074   -1.7164    0.9162 H         1 <0>         0.0819
     41 H7         -1.6690   -0.4967    2.0353 H         1 <0>         0.0932
     42 H8         -2.9278   -2.7033    2.0153 H         1 <0>         0.1127
     43 H9         -3.9263   -1.2750    1.6671 H         1 <0>         0.1036
     44 H10        -3.1565   -2.3126   -3.3421 H         1 <0>         0.1945
     45 H11        -7.3612   -7.0941    0.7626 H         1 <0>         0.4454
     46 H12        -7.2852   -7.1327   -0.9153 H         1 <0>         0.4311
     47 H13        -4.5456   -2.6409    2.5344 H         1 <0>         0.4369
     48 H14        -4.3755   -4.1920    3.1571 H         1 <0>         0.4291
     49 H15        -2.4103   -0.2771   -2.1657 H         1 <0>         0.0998
     50 H16        -1.1107   -1.3165   -1.5421 H         1 <0>         0.1041
     51 H17         3.7026    2.3075   -0.4776 H         1 <0>         0.3893
     52 H18         4.2849    5.1236   -0.9856 H         1 <0>         0.0798
     53 H19         6.6466    4.2917   -1.1906 H         1 <0>         0.0791
     54 H20         6.0738    2.6623   -0.7601 H         1 <0>         0.0567
     55 H21         4.5498    2.6814   -2.7161 H         1 <0>         0.0483
     56 H22         5.1226    4.3107   -3.1465 H         1 <0>         0.0532
     57 H23        -5.9701   -5.6231   -2.0369 H         1 <0>         0.4433
@<TRIPOS>BOND
     1    1    6 ar
     2    1    2 ar
     3    1   35 1
     4    2    3 ar
     5    2   36 1
     6    3    4 ar
     7    3   23 1
     8    4    5 ar
     9    4   37 1
    10    5    6 ar
    11    5   38 1
    12    6    7 1
    13    7   22 1
    14    7    8 1
    15    7   39 1
    16    8    9 1
    17    8   40 1
    18    8   41 1
    19    9   10 1
    20    9   42 1
    21    9   43 1
    22   10   15 ar
    23   10   11 ar
    24   11   12 ar
    25   11   22 1
    26   12   13 ar
    27   12   44 1
    28   13   14 ar
    29   14   19 ar
    30   14   15 ar
    31   15   16 ar
    32   16   17 ar
    33   16   21 1
    34   17   18 ar
    35   18   19 ar
    36   18   20 1
    37   19   57 1
    38   20   45 1
    39   20   46 1
    40   21   47 1
    41   21   48 1
    42   22   49 1
    43   22   50 1
    44   23   24 2
    45   23   25 am
    46   25   26 1
    47   25   51 1
    48   26   27 1
    49   26   32 1
    50   26   52 1
    51   27   28 1
    52   27   53 1
    53   27   54 1
    54   28   29 1
    55   28   55 1
    56   28   56 1
    57   29   30 2
    58   29   31 1
    59   32   33 2
    60   32   34 1
@<TRIPOS>MOLECULE
CHEMBL109229__1
   56    59     0     0     0
SMALL
USER_CHARGES

@<TRIPOS>ATOM
      1 C1         -1.2080    2.2431   -0.0147 C.ar      1 <0>        -0.1252
      2 C2         -0.1766    3.1578   -0.0667 C.ar      1 <0>        -0.0642
      3 C3          1.1387    2.7143   -0.2137 C.ar      1 <0>        -0.1058
      4 C4          1.4012    1.3466   -0.3072 C.ar      1 <0>        -0.0825
      5 C5          0.3606    0.4424   -0.2538 C.ar      1 <0>        -0.1209
      6 C6         -0.9409    0.8887   -0.1079 C.ar      1 <0>        -0.0743
      7 C7         -2.0726   -0.1048   -0.0503 C.3       1 <0>        -0.0426
      8 C8         -1.8567   -1.0659    1.1249 C.3       1 <0>        -0.1136
      9 C9         -3.1204   -1.9078    1.2954 C.3       1 <0>        -0.1088
     10 C10        -3.5325   -2.5156   -0.0164 C.ar      1 <0>         0.0379
     11 C11        -3.0790   -2.0643   -1.2194 C.ar      1 <0>        -0.1675
     12 C12        -3.5182   -2.6801   -2.3931 C.ar      1 <0>         0.1961
     13 N1         -4.3559   -3.6896   -2.3820 N.ar      1 <0>        -0.4897
     14 C13        -4.8295   -4.1785   -1.2360 C.ar      1 <0>         0.4005
     15 C14        -4.4270   -3.5977   -0.0098 C.ar      1 <0>        -0.2734
     16 C15        -4.9456   -4.1319    1.1959 C.ar      1 <0>         0.5194
     17 N2         -5.7850   -5.1549    1.1177 N.ar      1 <0>        -0.6189
     18 C16        -6.1365   -5.6726   -0.0558 C.ar      1 <0>         0.6147
     19 N3         -5.6834   -5.2115   -1.2067 N.ar      1 <0>        -0.5889
     20 N4         -7.0149   -6.7391   -0.0710 N.pl3     1 <0>        -0.8171
     21 N5         -4.5869   -3.6027    2.4161 N.pl3     1 <0>        -0.8489
     22 C17        -2.1064   -0.9214   -1.3407 C.3       1 <0>        -0.0680
     23 C18         2.2489    3.6889   -0.2707 C.2       1 <0>         0.5467
     24 O1          2.0173    4.8794   -0.1895 O.2       1 <0>        -0.5551
     25 N6          3.5178    3.2575   -0.4127 N.am      1 <0>        -0.6739
     26 C19         4.6179    4.2233   -0.4692 C.3       1 <0>         0.0725
     27 C20         5.7978    3.6088   -1.2250 C.3       1 <0>        -0.0813
     28 C21         5.3987    3.3643   -2.6817 C.3       1 <0>        -0.1774
     29 C22         6.5608    2.7590   -3.4261 C.2       1 <0>         0.4909
     30 O2          7.6109    2.5432   -2.8454 O.co2     1 <0>        -0.6973
     31 O3          6.4508    2.4851   -4.6091 O.co2     1 <0>        -0.7195
     32 C23         5.0479    4.5773    0.9311 C.2       1 <0>         0.4972
     33 O4          4.6194    3.9420    1.8794 O.co2     1 <0>        -0.6983
     34 O5          5.8243    5.4991    1.1157 O.co2     1 <0>        -0.7003
     35 H1         -2.2257    2.5847    0.1035 H         1 <0>         0.1217
     36 H2         -0.3864    4.2147    0.0058 H         1 <0>         0.1335
     37 H3          2.4166    0.9970   -0.4214 H         1 <0>         0.1292
     38 H4          0.5623   -0.6161   -0.3260 H         1 <0>         0.1235
     39 H5         -3.0181    0.4228    0.0752 H         1 <0>         0.0814
     40 H6         -1.0074   -1.7164    0.9162 H         1 <0>         0.0747
     41 H7         -1.6690   -0.4967    2.0353 H         1 <0>         0.0798
     42 H8         -2.9278   -2.7033    2.0153 H         1 <0>         0.1067
     43 H9         -3.9263   -1.2750    1.6671 H         1 <0>         0.0859
     44 H10        -3.1565   -2.3126   -3.3421 H         1 <0>         0.1680
     45 H11        -7.3612   -7.0941    0.7626 H         1 <0>         0.4132
     46 H12        -7.2852   -7.1327   -0.9153 H         1 <0>         0.4159
     47 H13        -4.5456   -2.6409    2.5344 H         1 <0>         0.4190
     48 H14        -4.3755   -4.1920    3.1571 H         1 <0>         0.4086
     49 H15        -2.4103   -0.2771   -2.1657 H         1 <0>         0.0840
     50 H16        -1.1107   -1.3165   -1.5421 H         1 <0>         0.0871
     51 H17         3.7026    2.3075   -0.4776 H         1 <0>         0.3900
     52 H18         4.2849    5.1236   -0.9856 H         1 <0>         0.0785
     53 H19         6.6466    4.2917   -1.1906 H         1 <0>         0.0773
     54 H20         6.0738    2.6623   -0.7601 H         1 <0>         0.0565
     55 H21         4.5498    2.6814   -2.7161 H         1 <0>         0.0504
     56 H22         5.1226    4.3107   -3.1465 H         1 <0>         0.0527
@<TRIPOS>BOND
     1    1    6 ar
     2    1    2 ar
     3    1   35 1
     4    2    3 ar
     5    2   36 1
     6    3    4 ar
     7    3   23 1
     8    4    5 ar
     9    4   37 1
    10    5    6 ar
    11    5   38 1
    12    6    7 1
    13    7   22 1
    14    7    8 1
    15    7   39 1
    16    8    9 1
    17    8   40 1
    18    8   41 1
    19    9   10 1
    20    9   42 1
    21    9   43 1
    22   10   15 ar
    23   10   11 ar
    24   11   12 ar
    25   11   22 1
    26   12   13 ar
    27   12   44 1
    28   13   14 ar
    29   14   19 ar
    30   14   15 ar
    31   15   16 ar
    32   16   17 ar
    33   16   21 1
    34   17   18 ar
    35   18   19 ar
    36   18   20 1
    37   20   45 1
    38   20   46 1
    39   21   47 1
    40   21   48 1
    41   22   49 1
    42   22   50 1
    43   23   24 2
    44   23   25 am
    45   25   26 1
    46   25   51 1
    47   26   27 1
    48   26   32 1
    49   26   52 1
    50   27   28 1
    51   27   53 1
    52   27   54 1
    53   28   29 1
    54   28   55 1
    55   28   56 1
    56   29   30 2
    57   29   31 1
    58   32   33 2
    59   32   34 1
@<TRIPOS>MOLECULE
CHEMBL109229__2
   57    60     0     0     0
SMALL
USER_CHARGES

@<TRIPOS>ATOM
      1 C1         -1.2080    2.2431   -0.0147 C.ar      1 <0>        -0.1213
      2 C2         -0.1766    3.1578   -0.0667 C.ar      1 <0>        -0.0630
      3 C3          1.1387    2.7143   -0.2137 C.ar      1 <0>        -0.0969
      4 C4          1.4012    1.3466   -0.3072 C.ar      1 <0>        -0.0818
      5 C5          0.3606    0.4424   -0.2538 C.ar      1 <0>        -0.1207
      6 C6         -0.9409    0.8887   -0.1079 C.ar      1 <0>        -0.0874
      7 C7         -2.0726   -0.1048   -0.0503 C.3       1 <0>        -0.0405
      8 C8         -1.8567   -1.0659    1.1249 C.3       1 <0>        -0.1183
      9 C9         -3.1204   -1.9078    1.2954 C.3       1 <0>        -0.1197
     10 C10        -3.5325   -2.5156   -0.0164 C.ar      1 <0>         0.0567
     11 C11        -3.0790   -2.0643   -1.2194 C.ar      1 <0>        -0.1232
     12 C12        -3.5182   -2.6801   -2.3931 C.ar      1 <0>         0.2230
     13 N1         -4.3559   -3.6896   -2.3820 N.ar      1 <0>        -0.4980
     14 C13        -4.8295   -4.1785   -1.2360 C.ar      1 <0>         0.3864
     15 C14        -4.4270   -3.5977   -0.0098 C.ar      1 <0>        -0.2328
     16 C15        -4.9456   -4.1319    1.1959 C.ar      1 <0>         0.5767
     17 N2         -5.7850   -5.1549    1.1177 N.ar      1 <0>        -0.5810
     18 C16        -6.1365   -5.6726   -0.0558 C.ar      1 <0>         0.6944
     19 N3         -5.6834   -5.2115   -1.2067 N.ar      1 <0>        -0.5683
     20 N4         -7.0149   -6.7391   -0.0710 N.pl3     1 <0>        -0.7853
     21 N5         -4.5869   -3.6027    2.4161 N.pl3     1 <0>        -0.8061
     22 C17        -2.1064   -0.9214   -1.3407 C.3       1 <0>        -0.0836
     23 C18         2.2489    3.6889   -0.2707 C.2       1 <0>         0.5372
     24 O1          2.0173    4.8794   -0.1895 O.2       1 <0>        -0.5485
     25 N6          3.5178    3.2575   -0.4127 N.am      1 <0>        -0.6715
     26 C19         4.6179    4.2233   -0.4692 C.3       1 <0>         0.0725
     27 C20         5.9129    3.5484   -0.0127 C.3       1 <0>        -0.0833
     28 C21         5.7923    3.1581    1.4617 C.3       1 <0>        -0.1765
     29 C22         7.0679    2.4934    1.9114 C.2       1 <0>         0.4901
     30 O2          7.9882    2.3456    1.1254 O.co2     1 <0>        -0.6957
     31 O3          7.1796    2.1034    3.0611 O.co2     1 <0>        -0.7190
     32 C23         4.7805    4.7174   -1.8836 C.2       1 <0>         0.4982
     33 O4          5.2003    5.8430   -2.0916 O.co2     1 <0>        -0.6966
     34 O5          4.4922    3.9915   -2.8198 O.co2     1 <0>        -0.7001
     35 H1         -2.2257    2.5847    0.1035 H         1 <0>         0.1227
     36 H2         -0.3864    4.2147    0.0058 H         1 <0>         0.1369
     37 H3          2.4166    0.9970   -0.4214 H         1 <0>         0.1324
     38 H4          0.5623   -0.6161   -0.3260 H         1 <0>         0.1226
     39 H5         -3.0181    0.4228    0.0752 H         1 <0>         0.0861
     40 H6         -1.0074   -1.7164    0.9162 H         1 <0>         0.0821
     41 H7         -1.6690   -0.4967    2.0353 H         1 <0>         0.0931
     42 H8         -2.9278   -2.7033    2.0153 H         1 <0>         0.1129
     43 H9         -3.9263   -1.2750    1.6671 H         1 <0>         0.1037
     44 H10        -3.1565   -2.3126   -3.3421 H         1 <0>         0.1943
     45 H11        -7.3612   -7.0941    0.7626 H         1 <0>         0.4455
     46 H12        -7.2852   -7.1327   -0.9153 H         1 <0>         0.4311
     47 H13        -4.5456   -2.6409    2.5344 H         1 <0>         0.4368
     48 H14        -4.3755   -4.1920    3.1571 H         1 <0>         0.4292
     49 H15        -2.4103   -0.2771   -2.1657 H         1 <0>         0.0999
     50 H16        -1.1107   -1.3165   -1.5421 H         1 <0>         0.1040
     51 H17         3.7026    2.3075   -0.4776 H         1 <0>         0.3907
     52 H18         4.3962    5.0652    0.1866 H         1 <0>         0.0794
     53 H19         6.0878    2.6549   -0.6120 H         1 <0>         0.0604
     54 H20         6.7466    4.2393   -0.1386 H         1 <0>         0.0748
     55 H21         5.6174    4.0516    2.0610 H         1 <0>         0.0533
     56 H22         4.9587    2.4672    1.5876 H         1 <0>         0.0488
     57 H23        -5.9701   -5.6231   -2.0369 H         1 <0>         0.4432
@<TRIPOS>BOND
     1    1    6 ar
     2    1    2 ar
     3    1   35 1
     4    2    3 ar
     5    2   36 1
     6    3    4 ar
     7    3   23 1
     8    4    5 ar
     9    4   37 1
    10    5    6 ar
    11    5   38 1
    12    6    7 1
    13    7   22 1
    14    7    8 1
    15    7   39 1
    16    8    9 1
    17    8   40 1
    18    8   41 1
    19    9   10 1
    20    9   42 1
    21    9   43 1
    22   10   15 ar
    23   10   11 ar
    24   11   12 ar
    25   11   22 1
    26   12   13 ar
    27   12   44 1
    28   13   14 ar
    29   14   19 ar
    30   14   15 ar
    31   15   16 ar
    32   16   17 ar
    33   16   21 1
    34   17   18 ar
    35   18   19 ar
    36   18   20 1
    37   19   57 1
    38   20   45 1
    39   20   46 1
    40   21   47 1
    41   21   48 1
    42   22   49 1
    43   22   50 1
    44   23   24 2
    45   23   25 am
    46   25   26 1
    47   25   51 1
    48   26   27 1
    49   26   32 1
    50   26   52 1
    51   27   28 1
    52   27   53 1
    53   27   54 1
    54   28   29 1
    55   28   55 1
    56   28   56 1
    57   29   30 2
    58   29   31 1
    59   32   33 2
    60   32   34 1
@<TRIPOS>MOLECULE
CHEMBL109229__3
   56    59     0     0     0
SMALL
USER_CHARGES

@<TRIPOS>ATOM
      1 C1         -1.2080    2.2431   -0.0147 C.ar      1 <0>        -0.1252
      2 C2         -0.1766    3.1578   -0.0667 C.ar      1 <0>        -0.0639
      3 C3          1.1387    2.7143   -0.2137 C.ar      1 <0>        -0.1076
      4 C4          1.4012    1.3466   -0.3072 C.ar      1 <0>        -0.0821
      5 C5          0.3606    0.4424   -0.2538 C.ar      1 <0>        -0.1208
      6 C6         -0.9409    0.8887   -0.1079 C.ar      1 <0>        -0.0736
      7 C7         -2.0726   -0.1048   -0.0503 C.3       1 <0>        -0.0428
      8 C8         -1.8567   -1.0659    1.1249 C.3       1 <0>        -0.1135
      9 C9         -3.1204   -1.9078    1.2954 C.3       1 <0>        -0.1090
     10 C10        -3.5325   -2.5156   -0.0164 C.ar      1 <0>         0.0381
     11 C11        -3.0790   -2.0643   -1.2194 C.ar      1 <0>        -0.1676
     12 C12        -3.5182   -2.6801   -2.3931 C.ar      1 <0>         0.1960
     13 N1         -4.3559   -3.6896   -2.3820 N.ar      1 <0>        -0.4898
     14 C13        -4.8295   -4.1785   -1.2360 C.ar      1 <0>         0.4005
     15 C14        -4.4270   -3.5977   -0.0098 C.ar      1 <0>        -0.2735
     16 C15        -4.9456   -4.1319    1.1959 C.ar      1 <0>         0.5196
     17 N2         -5.7850   -5.1549    1.1177 N.ar      1 <0>        -0.6188
     18 C16        -6.1365   -5.6726   -0.0558 C.ar      1 <0>         0.6148
     19 N3         -5.6834   -5.2115   -1.2067 N.ar      1 <0>        -0.5891
     20 N4         -7.0149   -6.7391   -0.0710 N.pl3     1 <0>        -0.8170
     21 N5         -4.5869   -3.6027    2.4161 N.pl3     1 <0>        -0.8488
     22 C17        -2.1064   -0.9214   -1.3407 C.3       1 <0>        -0.0681
     23 C18         2.2489    3.6889   -0.2707 C.2       1 <0>         0.5420
     24 O1          2.0173    4.8794   -0.1895 O.2       1 <0>        -0.5528
     25 N6          3.5178    3.2575   -0.4127 N.am      1 <0>        -0.6745
     26 C19         4.6179    4.2233   -0.4692 C.3       1 <0>         0.0734
     27 C20         5.9129    3.5484   -0.0127 C.3       1 <0>        -0.0826
     28 C21         5.7923    3.1581    1.4617 C.3       1 <0>        -0.1770
     29 C22         7.0679    2.4934    1.9114 C.2       1 <0>         0.4909
     30 O2          7.9882    2.3456    1.1254 O.co2     1 <0>        -0.6972
     31 O3          7.1796    2.1034    3.0611 O.co2     1 <0>        -0.7196
     32 C23         4.7805    4.7174   -1.8836 C.2       1 <0>         0.4983
     33 O4          5.2003    5.8430   -2.0916 O.co2     1 <0>        -0.7005
     34 O5          4.4922    3.9915   -2.8198 O.co2     1 <0>        -0.6985
     35 H1         -2.2257    2.5847    0.1035 H         1 <0>         0.1219
     36 H2         -0.3864    4.2147    0.0058 H         1 <0>         0.1338
     37 H3          2.4166    0.9970   -0.4214 H         1 <0>         0.1299
     38 H4          0.5623   -0.6161   -0.3260 H         1 <0>         0.1239
     39 H5         -3.0181    0.4228    0.0752 H         1 <0>         0.0815
     40 H6         -1.0074   -1.7164    0.9162 H         1 <0>         0.0749
     41 H7         -1.6690   -0.4967    2.0353 H         1 <0>         0.0797
     42 H8         -2.9278   -2.7033    2.0153 H         1 <0>         0.1070
     43 H9         -3.9263   -1.2750    1.6671 H         1 <0>         0.0860
     44 H10        -3.1565   -2.3126   -3.3421 H         1 <0>         0.1679
     45 H11        -7.3612   -7.0941    0.7626 H         1 <0>         0.4132
     46 H12        -7.2852   -7.1327   -0.9153 H         1 <0>         0.4159
     47 H13        -4.5456   -2.6409    2.5344 H         1 <0>         0.4190
     48 H14        -4.3755   -4.1920    3.1571 H         1 <0>         0.4088
     49 H15        -2.4103   -0.2771   -2.1657 H         1 <0>         0.0840
     50 H16        -1.1107   -1.3165   -1.5421 H         1 <0>         0.0870
     51 H17         3.7026    2.3075   -0.4776 H         1 <0>         0.3914
     52 H18         4.3962    5.0652    0.1866 H         1 <0>         0.0780
     53 H19         6.0878    2.6549   -0.6120 H         1 <0>         0.0603
     54 H20         6.7466    4.2393   -0.1386 H         1 <0>         0.0729
     55 H21         5.6174    4.0516    2.0610 H         1 <0>         0.0527
     56 H22         4.9587    2.4672    1.5876 H         1 <0>         0.0508
@<TRIPOS>BOND
     1    1    6 ar
     2    1    2 ar
     3    1   35 1
     4    2    3 ar
     5    2   36 1
     6    3    4 ar
     7    3   23 1
     8    4    5 ar
     9    4   37 1
    10    5    6 ar
    11    5   38 1
    12    6    7 1
    13    7   22 1
    14    7    8 1
    15    7   39 1
    16    8    9 1
    17    8   40 1
    18    8   41 1
    19    9   10 1
    20    9   42 1
    21    9   43 1
    22   10   15 ar
    23   10   11 ar
    24   11   12 ar
    25   11   22 1
    26   12   13 ar
    27   12   44 1
    28   13   14 ar
    29   14   19 ar
    30   14   15 ar
    31   15   16 ar
    32   16   17 ar
    33   16   21 1
    34   17   18 ar
    35   18   19 ar
    36   18   20 1
    37   20   45 1
    38   20   46 1
    39   21   47 1
    40   21   48 1
    41   22   49 1
    42   22   50 1
    43   23   24 2
    44   23   25 am
    45   25   26 1
    46   25   51 1
    47   26   27 1
    48   26   32 1
    49   26   52 1
    50   27   28 1
    51   27   53 1
    52   27   54 1
    53   28   29 1
    54   28   55 1
    55   28   56 1
    56   29   30 2
    57   29   31 1
    58   32   33 2
    59   32   34 1
@<TRIPOS>MOLECULE
CHEMBL109229__4
   57    60     0     0     0
SMALL
USER_CHARGES

@<TRIPOS>ATOM
      1 C1         -2.3221    2.7915    0.0059 C.ar      1 <0>        -0.1213
      2 C2         -1.4476    3.8565    0.0721 C.ar      1 <0>        -0.0633
      3 C3         -0.0892    3.6272    0.2964 C.ar      1 <0>        -0.0952
      4 C4          0.3752    2.3202    0.4523 C.ar      1 <0>        -0.0822
      5 C5         -0.5099    1.2642    0.3839 C.ar      1 <0>        -0.1208
      6 C6         -1.8552    1.4984    0.1613 C.ar      1 <0>        -0.0881
      7 C7         -2.8163    0.3400    0.0878 C.3       1 <0>        -0.0403
      8 C8         -2.3948   -0.6100   -1.0398 C.3       1 <0>        -0.1183
      9 C9         -3.5036   -1.6425   -1.2377 C.3       1 <0>        -0.1196
     10 C10        -3.8845   -2.2683    0.0751 C.ar      1 <0>         0.0567
     11 C11        -3.5682   -1.7173    1.2804 C.ar      1 <0>        -0.1232
     12 C12        -3.9674   -2.3593    2.4543 C.ar      1 <0>         0.2230
     13 N1         -4.6375   -3.4870    2.4415 N.ar      1 <0>        -0.4981
     14 C13        -4.9707   -4.0768    1.2936 C.ar      1 <0>         0.3864
     15 C14        -4.6005   -3.4760    0.0668 C.ar      1 <0>        -0.2329
     16 C15        -4.9681   -4.1191   -1.1412 C.ar      1 <0>         0.5767
     17 N2         -5.6432   -5.2574   -1.0644 N.ar      1 <0>        -0.5811
     18 C16        -5.9708   -5.7890    0.1097 C.ar      1 <0>         0.6944
     19 N3         -5.6522   -5.2307    1.2627 N.ar      1 <0>        -0.5683
     20 N4         -6.6744   -6.9781    0.1234 N.pl3     1 <0>        -0.7853
     21 N5         -4.6335   -3.5760   -2.3621 N.pl3     1 <0>        -0.8061
     22 C17        -2.7907   -0.4339    1.4045 C.3       1 <0>        -0.0837
     23 C18         0.8537    4.7637    0.3680 C.2       1 <0>         0.5420
     24 O1          0.4464    5.9008    0.2315 O.2       1 <0>        -0.5508
     25 N6          2.1648    4.5389    0.5847 N.am      1 <0>        -0.6708
     26 C19         3.0991    5.6650    0.6557 C.3       1 <0>         0.0716
     27 C20         4.5042    5.1861    0.2852 C.3       1 <0>        -0.0820
     28 C21         4.5211    4.7377   -1.1775 C.3       1 <0>        -0.1768
     29 C22         5.9050    4.2660   -1.5424 C.2       1 <0>         0.4901
     30 O2          6.7953    4.2865   -0.7097 O.co2     1 <0>        -0.6954
     31 O3          6.1344    3.8638   -2.6703 O.co2     1 <0>        -0.7193
     32 C23         3.1108    6.2205    2.0565 C.2       1 <0>         0.4971
     33 O4          2.5505    5.6177    2.9560 O.co2     1 <0>        -0.6999
     34 O5          3.6806    7.2728    2.2903 O.co2     1 <0>        -0.6961
     35 H1         -3.3741    2.9679   -0.1631 H         1 <0>         0.1224
     36 H2         -1.8133    4.8654   -0.0497 H         1 <0>         0.1367
     37 H3          1.4251    2.1360    0.6257 H         1 <0>         0.1318
     38 H4         -0.1518    0.2524    0.5043 H         1 <0>         0.1222
     39 H5         -3.8239    0.7104   -0.1008 H         1 <0>         0.0860
     40 H6         -2.2501   -0.0453   -1.9609 H         1 <0>         0.0931
     41 H7         -1.4675   -1.1142   -0.7680 H         1 <0>         0.0820
     42 H8         -4.3769   -1.1537   -1.6695 H         1 <0>         0.1036
     43 H9         -3.1541   -2.4191   -1.9180 H         1 <0>         0.1128
     44 H10        -3.7157   -1.9126    3.4049 H         1 <0>         0.1943
     45 H11        -6.9187   -7.4068   -0.7117 H         1 <0>         0.4455
     46 H12        -6.9241   -7.3842    0.9682 H         1 <0>         0.4311
     47 H13        -4.2967   -4.1464   -3.0708 H         1 <0>         0.4292
     48 H14        -4.7347   -2.6232   -2.5132 H         1 <0>         0.4369
     49 H15        -1.7579   -0.6635    1.6664 H         1 <0>         0.1039
     50 H16        -3.2322    0.1791    2.1902 H         1 <0>         0.0999
     51 H17         2.4898    3.6315    0.6936 H         1 <0>         0.3893
     52 H18         2.7848    6.4424   -0.0408 H         1 <0>         0.0798
     53 H19         5.2142    6.0015    0.4235 H         1 <0>         0.0791
     54 H20         4.7832    4.3489    0.9251 H         1 <0>         0.0567
     55 H21         3.8110    3.9224   -1.3158 H         1 <0>         0.0483
     56 H22         4.2421    5.5749   -1.8174 H         1 <0>         0.0531
     57 H23        -5.9135   -5.6582    2.0933 H         1 <0>         0.4432
@<TRIPOS>BOND
     1    1    6 ar
     2    1    2 ar
     3    1   35 1
     4    2    3 ar
     5    2   36 1
     6    3    4 ar
     7    3   23 1
     8    4    5 ar
     9    4   37 1
    10    5    6 ar
    11    5   38 1
    12    6    7 1
    13    7   22 1
    14    7    8 1
    15    7   39 1
    16    8    9 1
    17    8   40 1
    18    8   41 1
    19    9   10 1
    20    9   42 1
    21    9   43 1
    22   10   15 ar
    23   10   11 ar
    24   11   12 ar
    25   11   22 1
    26   12   13 ar
    27   12   44 1
    28   13   14 ar
    29   14   19 ar
    30   14   15 ar
    31   15   16 ar
    32   16   17 ar
    33   16   21 1
    34   17   18 ar
    35   18   19 ar
    36   18   20 1
    37   19   57 1
    38   20   45 1
    39   20   46 1
    40   21   47 1
    41   21   48 1
    42   22   49 1
    43   22   50 1
    44   23   24 2
    45   23   25 am
    46   25   26 1
    47   25   51 1
    48   26   27 1
    49   26   32 1
    50   26   52 1
    51   27   28 1
    52   27   53 1
    53   27   54 1
    54   28   29 1
    55   28   55 1
    56   28   56 1
    57   29   30 2
    58   29   31 1
    59   32   33 2
    60   32   34 1
@<TRIPOS>MOLECULE
CHEMBL109229__5
   56    59     0     0     0
SMALL
USER_CHARGES

@<TRIPOS>ATOM
      1 C1         -2.3221    2.7915    0.0059 C.ar      1 <0>        -0.1252
      2 C2         -1.4476    3.8565    0.0721 C.ar      1 <0>        -0.0642
      3 C3         -0.0892    3.6272    0.2964 C.ar      1 <0>        -0.1058
      4 C4          0.3752    2.3202    0.4523 C.ar      1 <0>        -0.0825
      5 C5         -0.5099    1.2642    0.3839 C.ar      1 <0>        -0.1209
      6 C6         -1.8552    1.4984    0.1613 C.ar      1 <0>        -0.0743
      7 C7         -2.8163    0.3400    0.0878 C.3       1 <0>        -0.0426
      8 C8         -2.3948   -0.6100   -1.0398 C.3       1 <0>        -0.1135
      9 C9         -3.5036   -1.6425   -1.2377 C.3       1 <0>        -0.1089
     10 C10        -3.8845   -2.2683    0.0751 C.ar      1 <0>         0.0380
     11 C11        -3.5682   -1.7173    1.2804 C.ar      1 <0>        -0.1676
     12 C12        -3.9674   -2.3593    2.4543 C.ar      1 <0>         0.1960
     13 N1         -4.6375   -3.4870    2.4415 N.ar      1 <0>        -0.4899
     14 C13        -4.9707   -4.0768    1.2936 C.ar      1 <0>         0.4005
     15 C14        -4.6005   -3.4760    0.0668 C.ar      1 <0>        -0.2735
     16 C15        -4.9681   -4.1191   -1.1412 C.ar      1 <0>         0.5196
     17 N2         -5.6432   -5.2574   -1.0644 N.ar      1 <0>        -0.6189
     18 C16        -5.9708   -5.7890    0.1097 C.ar      1 <0>         0.6148
     19 N3         -5.6522   -5.2307    1.2627 N.ar      1 <0>        -0.5891
     20 N4         -6.6744   -6.9781    0.1234 N.pl3     1 <0>        -0.8171
     21 N5         -4.6335   -3.5760   -2.3621 N.pl3     1 <0>        -0.8488
     22 C17        -2.7907   -0.4339    1.4045 C.3       1 <0>        -0.0681
     23 C18         0.8537    4.7637    0.3680 C.2       1 <0>         0.5467
     24 O1          0.4464    5.9008    0.2315 O.2       1 <0>        -0.5551
     25 N6          2.1648    4.5389    0.5847 N.am      1 <0>        -0.6739
     26 C19         3.0991    5.6650    0.6557 C.3       1 <0>         0.0724
     27 C20         4.5042    5.1861    0.2852 C.3       1 <0>        -0.0813
     28 C21         4.5211    4.7377   -1.1775 C.3       1 <0>        -0.1773
     29 C22         5.9050    4.2660   -1.5424 C.2       1 <0>         0.4909
     30 O2          6.7953    4.2865   -0.7097 O.co2     1 <0>        -0.6970
     31 O3          6.1344    3.8638   -2.6703 O.co2     1 <0>        -0.7199
     32 C23         3.1108    6.2205    2.0565 C.2       1 <0>         0.4970
     33 O4          2.5505    5.6177    2.9560 O.co2     1 <0>        -0.6977
     34 O5          3.6806    7.2728    2.2903 O.co2     1 <0>        -0.7003
     35 H1         -3.3741    2.9679   -0.1631 H         1 <0>         0.1217
     36 H2         -1.8133    4.8654   -0.0497 H         1 <0>         0.1335
     37 H3          1.4251    2.1360    0.6257 H         1 <0>         0.1292
     38 H4         -0.1518    0.2524    0.5043 H         1 <0>         0.1235
     39 H5         -3.8239    0.7104   -0.1008 H         1 <0>         0.0814
     40 H6         -2.2501   -0.0453   -1.9609 H         1 <0>         0.0797
     41 H7         -1.4675   -1.1142   -0.7680 H         1 <0>         0.0748
     42 H8         -4.3769   -1.1537   -1.6695 H         1 <0>         0.0859
     43 H9         -3.1541   -2.4191   -1.9180 H         1 <0>         0.1068
     44 H10        -3.7157   -1.9126    3.4049 H         1 <0>         0.1679
     45 H11        -6.9187   -7.4068   -0.7117 H         1 <0>         0.4132
     46 H12        -6.9241   -7.3842    0.9682 H         1 <0>         0.4159
     47 H13        -4.2967   -4.1464   -3.0708 H         1 <0>         0.4087
     48 H14        -4.7347   -2.6232   -2.5132 H         1 <0>         0.4190
     49 H15        -1.7579   -0.6635    1.6664 H         1 <0>         0.0869
     50 H16        -3.2322    0.1791    2.1902 H         1 <0>         0.0841
     51 H17         2.4898    3.6315    0.6936 H         1 <0>         0.3900
     52 H18         2.7848    6.4424   -0.0408 H         1 <0>         0.0784
     53 H19         5.2142    6.0015    0.4235 H         1 <0>         0.0773
     54 H20         4.7832    4.3489    0.9251 H         1 <0>         0.0566
     55 H21         3.8110    3.9224   -1.3158 H         1 <0>         0.0502
     56 H22         4.2421    5.5749   -1.8174 H         1 <0>         0.0526
@<TRIPOS>BOND
     1    1    6 ar
     2    1    2 ar
     3    1   35 1
     4    2    3 ar
     5    2   36 1
     6    3    4 ar
     7    3   23 1
     8    4    5 ar
     9    4   37 1
    10    5    6 ar
    11    5   38 1
    12    6    7 1
    13    7   22 1
    14    7    8 1
    15    7   39 1
    16    8    9 1
    17    8   40 1
    18    8   41 1
    19    9   10 1
    20    9   42 1
    21    9   43 1
    22   10   15 ar
    23   10   11 ar
    24   11   12 ar
    25   11   22 1
    26   12   13 ar
    27   12   44 1
    28   13   14 ar
    29   14   19 ar
    30   14   15 ar
    31   15   16 ar
    32   16   17 ar
    33   16   21 1
    34   17   18 ar
    35   18   19 ar
    36   18   20 1
    37   20   45 1
    38   20   46 1
    39   21   47 1
    40   21   48 1
    41   22   49 1
    42   22   50 1
    43   23   24 2
    44   23   25 am
    45   25   26 1
    46   25   51 1
    47   26   27 1
    48   26   32 1
    49   26   52 1
    50   27   28 1
    51   27   53 1
    52   27   54 1
    53   28   29 1
    54   28   55 1
    55   28   56 1
    56   29   30 2
    57   29   31 1
    58   32   33 2
    59   32   34 1
@<TRIPOS>MOLECULE
CHEMBL109229__6
   57    60     0     0     0
SMALL
USER_CHARGES

@<TRIPOS>ATOM
      1 C1         -2.3221    2.7915    0.0059 C.ar      1 <0>        -0.1213
      2 C2         -1.4476    3.8565    0.0721 C.ar      1 <0>        -0.0630
      3 C3         -0.0892    3.6272    0.2964 C.ar      1 <0>        -0.0969
      4 C4          0.3752    2.3202    0.4523 C.ar      1 <0>        -0.0818
      5 C5         -0.5099    1.2642    0.3839 C.ar      1 <0>        -0.1207
      6 C6         -1.8552    1.4984    0.1613 C.ar      1 <0>        -0.0874
      7 C7         -2.8163    0.3400    0.0878 C.3       1 <0>        -0.0405
      8 C8         -2.3948   -0.6100   -1.0398 C.3       1 <0>        -0.1185
      9 C9         -3.5036   -1.6425   -1.2377 C.3       1 <0>        -0.1195
     10 C10        -3.8845   -2.2683    0.0751 C.ar      1 <0>         0.0566
     11 C11        -3.5682   -1.7173    1.2804 C.ar      1 <0>        -0.1233
     12 C12        -3.9674   -2.3593    2.4543 C.ar      1 <0>         0.2233
     13 N1         -4.6375   -3.4870    2.4415 N.ar      1 <0>        -0.4979
     14 C13        -4.9707   -4.0768    1.2936 C.ar      1 <0>         0.3865
     15 C14        -4.6005   -3.4760    0.0668 C.ar      1 <0>        -0.2329
     16 C15        -4.9681   -4.1191   -1.1412 C.ar      1 <0>         0.5767
     17 N2         -5.6432   -5.2574   -1.0644 N.ar      1 <0>        -0.5811
     18 C16        -5.9708   -5.7890    0.1097 C.ar      1 <0>         0.6944
     19 N3         -5.6522   -5.2307    1.2627 N.ar      1 <0>        -0.5683
     20 N4         -6.6744   -6.9781    0.1234 N.pl3     1 <0>        -0.7853
     21 N5         -4.6335   -3.5760   -2.3621 N.pl3     1 <0>        -0.8063
     22 C17        -2.7907   -0.4339    1.4045 C.3       1 <0>        -0.0836
     23 C18         0.8537    4.7637    0.3680 C.2       1 <0>         0.5373
     24 O1          0.4464    5.9008    0.2315 O.2       1 <0>        -0.5485
     25 N6          2.1648    4.5389    0.5847 N.am      1 <0>        -0.6715
     26 C19         3.0991    5.6650    0.6557 C.3       1 <0>         0.0724
     27 C20         4.3188    5.2641    1.4878 C.3       1 <0>        -0.0833
     28 C21         3.8875    5.0043    2.9325 C.3       1 <0>        -0.1765
     29 C22         5.0889    4.6094    3.7521 C.2       1 <0>         0.4901
     30 O2          6.1882    4.5420    3.2292 O.co2     1 <0>        -0.6956
     31 O3          4.9616    4.3573    4.9382 O.co2     1 <0>        -0.7190
     32 C23         3.5412    6.0395   -0.7356 C.2       1 <0>         0.4982
     33 O4          3.8396    7.1938   -0.9904 O.co2     1 <0>        -0.6966
     34 O5          3.6004    5.1880   -1.6062 O.co2     1 <0>        -0.7001
     35 H1         -3.3741    2.9679   -0.1631 H         1 <0>         0.1227
     36 H2         -1.8133    4.8654   -0.0497 H         1 <0>         0.1369
     37 H3          1.4251    2.1360    0.6257 H         1 <0>         0.1324
     38 H4         -0.1518    0.2524    0.5043 H         1 <0>         0.1225
     39 H5         -3.8239    0.7104   -0.1008 H         1 <0>         0.0861
     40 H6         -2.2501   -0.0453   -1.9609 H         1 <0>         0.0932
     41 H7         -1.4675   -1.1142   -0.7680 H         1 <0>         0.0820
     42 H8         -4.3769   -1.1537   -1.6695 H         1 <0>         0.1036
     43 H9         -3.1541   -2.4191   -1.9180 H         1 <0>         0.1127
     44 H10        -3.7157   -1.9126    3.4049 H         1 <0>         0.1945
     45 H11        -6.9187   -7.4068   -0.7117 H         1 <0>         0.4454
     46 H12        -6.9241   -7.3842    0.9682 H         1 <0>         0.4311
     47 H13        -4.2967   -4.1464   -3.0708 H         1 <0>         0.4291
     48 H14        -4.7347   -2.6232   -2.5132 H         1 <0>         0.4369
     49 H15        -1.7579   -0.6635    1.6664 H         1 <0>         0.1041
     50 H16        -3.2322    0.1791    2.1902 H         1 <0>         0.0998
     51 H17         2.4898    3.6315    0.6936 H         1 <0>         0.3908
     52 H18         2.6056    6.5178    1.1219 H         1 <0>         0.0794
     53 H19         4.7605    4.3585    1.0720 H         1 <0>         0.0604
     54 H20         5.0534    6.0691    1.4670 H         1 <0>         0.0747
     55 H21         3.4458    5.9100    3.3483 H         1 <0>         0.0533
     56 H22         3.1530    4.1993    2.9533 H         1 <0>         0.0489
     57 H23        -5.9135   -5.6582    2.0933 H         1 <0>         0.4433
@<TRIPOS>BOND
     1    1    6 ar
     2    1    2 ar
     3    1   35 1
     4    2    3 ar
     5    2   36 1
     6    3    4 ar
     7    3   23 1
     8    4    5 ar
     9    4   37 1
    10    5    6 ar
    11    5   38 1
    12    6    7 1
    13    7   22 1
    14    7    8 1
    15    7   39 1
    16    8    9 1
    17    8   40 1
    18    8   41 1
    19    9   10 1
    20    9   42 1
    21    9   43 1
    22   10   15 ar
    23   10   11 ar
    24   11   12 ar
    25   11   22 1
    26   12   13 ar
    27   12   44 1
    28   13   14 ar
    29   14   19 ar
    30   14   15 ar
    31   15   16 ar
    32   16   17 ar
    33   16   21 1
    34   17   18 ar
    35   18   19 ar
    36   18   20 1
    37   19   57 1
    38   20   45 1
    39   20   46 1
    40   21   47 1
    41   21   48 1
    42   22   49 1
    43   22   50 1
    44   23   24 2
    45   23   25 am
    46   25   26 1
    47   25   51 1
    48   26   27 1
    49   26   32 1
    50   26   52 1
    51   27   28 1
    52   27   53 1
    53   27   54 1
    54   28   29 1
    55   28   55 1
    56   28   56 1
    57   29   30 2
    58   29   31 1
    59   32   33 2
    60   32   34 1
@<TRIPOS>MOLECULE
CHEMBL109229__7
   56    59     0     0     0
SMALL
USER_CHARGES

@<TRIPOS>ATOM
      1 C1         -2.3221    2.7915    0.0059 C.ar      1 <0>        -0.1252
      2 C2         -1.4476    3.8565    0.0721 C.ar      1 <0>        -0.0640
      3 C3         -0.0892    3.6272    0.2964 C.ar      1 <0>        -0.1076
      4 C4          0.3752    2.3202    0.4523 C.ar      1 <0>        -0.0821
      5 C5         -0.5099    1.2642    0.3839 C.ar      1 <0>        -0.1208
      6 C6         -1.8552    1.4984    0.1613 C.ar      1 <0>        -0.0736
      7 C7         -2.8163    0.3400    0.0878 C.3       1 <0>        -0.0428
      8 C8         -2.3948   -0.6100   -1.0398 C.3       1 <0>        -0.1136
      9 C9         -3.5036   -1.6425   -1.2377 C.3       1 <0>        -0.1088
     10 C10        -3.8845   -2.2683    0.0751 C.ar      1 <0>         0.0379
     11 C11        -3.5682   -1.7173    1.2804 C.ar      1 <0>        -0.1676
     12 C12        -3.9674   -2.3593    2.4543 C.ar      1 <0>         0.1962
     13 N1         -4.6375   -3.4870    2.4415 N.ar      1 <0>        -0.4897
     14 C13        -4.9707   -4.0768    1.2936 C.ar      1 <0>         0.4007
     15 C14        -4.6005   -3.4760    0.0668 C.ar      1 <0>        -0.2736
     16 C15        -4.9681   -4.1191   -1.1412 C.ar      1 <0>         0.5195
     17 N2         -5.6432   -5.2574   -1.0644 N.ar      1 <0>        -0.6189
     18 C16        -5.9708   -5.7890    0.1097 C.ar      1 <0>         0.6148
     19 N3         -5.6522   -5.2307    1.2627 N.ar      1 <0>        -0.5890
     20 N4         -6.6744   -6.9781    0.1234 N.pl3     1 <0>        -0.8171
     21 N5         -4.6335   -3.5760   -2.3621 N.pl3     1 <0>        -0.8489
     22 C17        -2.7907   -0.4339    1.4045 C.3       1 <0>        -0.0680
     23 C18         0.8537    4.7637    0.3680 C.2       1 <0>         0.5420
     24 O1          0.4464    5.9008    0.2315 O.2       1 <0>        -0.5528
     25 N6          2.1648    4.5389    0.5847 N.am      1 <0>        -0.6745
     26 C19         3.0991    5.6650    0.6557 C.3       1 <0>         0.0733
     27 C20         4.3188    5.2641    1.4878 C.3       1 <0>        -0.0825
     28 C21         3.8875    5.0043    2.9325 C.3       1 <0>        -0.1771
     29 C22         5.0889    4.6094    3.7521 C.2       1 <0>         0.4909
     30 O2          6.1882    4.5420    3.2292 O.co2     1 <0>        -0.6975
     31 O3          4.9616    4.3573    4.9382 O.co2     1 <0>        -0.7192
     32 C23         3.5412    6.0395   -0.7356 C.2       1 <0>         0.4984
     33 O4          3.8396    7.1938   -0.9904 O.co2     1 <0>        -0.7005
     34 O5          3.6004    5.1880   -1.6062 O.co2     1 <0>        -0.6990
     35 H1         -3.3741    2.9679   -0.1631 H         1 <0>         0.1219
     36 H2         -1.8133    4.8654   -0.0497 H         1 <0>         0.1338
     37 H3          1.4251    2.1360    0.6257 H         1 <0>         0.1299
     38 H4         -0.1518    0.2524    0.5043 H         1 <0>         0.1239
     39 H5         -3.8239    0.7104   -0.1008 H         1 <0>         0.0815
     40 H6         -2.2501   -0.0453   -1.9609 H         1 <0>         0.0798
     41 H7         -1.4675   -1.1142   -0.7680 H         1 <0>         0.0748
     42 H8         -4.3769   -1.1537   -1.6695 H         1 <0>         0.0860
     43 H9         -3.1541   -2.4191   -1.9180 H         1 <0>         0.1068
     44 H10        -3.7157   -1.9126    3.4049 H         1 <0>         0.1680
     45 H11        -6.9187   -7.4068   -0.7117 H         1 <0>         0.4132
     46 H12        -6.9241   -7.3842    0.9682 H         1 <0>         0.4159
     47 H13        -4.2967   -4.1464   -3.0708 H         1 <0>         0.4086
     48 H14        -4.7347   -2.6232   -2.5132 H         1 <0>         0.4190
     49 H15        -1.7579   -0.6635    1.6664 H         1 <0>         0.0871
     50 H16        -3.2322    0.1791    2.1902 H         1 <0>         0.0840
     51 H17         2.4898    3.6315    0.6936 H         1 <0>         0.3914
     52 H18         2.6056    6.5178    1.1219 H         1 <0>         0.0781
     53 H19         4.7605    4.3585    1.0720 H         1 <0>         0.0602
     54 H20         5.0534    6.0691    1.4670 H         1 <0>         0.0729
     55 H21         3.4458    5.9100    3.3483 H         1 <0>         0.0528
     56 H22         3.1530    4.1993    2.9533 H         1 <0>         0.0510
@<TRIPOS>BOND
     1    1    6 ar
     2    1    2 ar
     3    1   35 1
     4    2    3 ar
     5    2   36 1
     6    3    4 ar
     7    3   23 1
     8    4    5 ar
     9    4   37 1
    10    5    6 ar
    11    5   38 1
    12    6    7 1
    13    7   22 1
    14    7    8 1
    15    7   39 1
    16    8    9 1
    17    8   40 1
    18    8   41 1
    19    9   10 1
    20    9   42 1
    21    9   43 1
    22   10   15 ar
    23   10   11 ar
    24   11   12 ar
    25   11   22 1
    26   12   13 ar
    27   12   44 1
    28   13   14 ar
    29   14   19 ar
    30   14   15 ar
    31   15   16 ar
    32   16   17 ar
    33   16   21 1
    34   17   18 ar
    35   18   19 ar
    36   18   20 1
    37   20   45 1
    38   20   46 1
    39   21   47 1
    40   21   48 1
    41   22   49 1
    42   22   50 1
    43   23   24 2
    44   23   25 am
    45   25   26 1
    46   25   51 1
    47   26   27 1
    48   26   32 1
    49   26   52 1
    50   27   28 1
    51   27   53 1
    52   27   54 1
    53   28   29 1
    54   28   55 1
    55   28   56 1
    56   29   30 2
    57   29   31 1
    58   32   33 2
    59   32   34 1
@<TRIPOS>MOLECULE
CHEMBL308758
   53    57     0     0     0
SMALL
USER_CHARGES

@<TRIPOS>ATOM
      1 C1          0.5463    0.4825   -0.2655 C.3       1 <0>        -0.1806
      2 C2          0.2514   -1.0169   -0.1900 C.3       1 <0>         0.0814
      3 C3         -1.2400   -1.2283   -0.1502 C.ar      1 <0>        -0.0934
      4 C4         -1.9501   -1.1339   -1.3438 C.ar      1 <0>        -0.1313
      5 C5         -3.3139   -1.3139   -1.3656 C.ar      1 <0>        -0.0437
      6 C6         -3.9913   -1.5936   -0.1814 C.ar      1 <0>        -0.0795
      7 C7         -5.4085   -1.8336    0.1461 C.ar      1 <0>        -0.1129
      8 C8         -6.5757   -1.8657   -0.6134 C.ar      1 <0>        -0.0565
      9 C9         -7.7834   -2.1242   -0.0020 C.ar      1 <0>        -0.1410
     10 C10        -7.8394   -2.3519    1.3647 C.ar      1 <0>        -0.0716
     11 C11        -6.6922   -2.3229    2.1279 C.ar      1 <0>        -0.1404
     12 C12        -5.4631   -2.0633    1.5288 C.ar      1 <0>         0.1410
     13 N1         -4.1792   -1.9744    2.0367 N.pl3     1 <0>        -0.5039
     14 C13        -3.2814   -1.6920    1.0225 C.ar      1 <0>         0.1549
     15 C14        -1.8982   -1.5072    1.0246 C.ar      1 <0>        -0.1095
     16 C15        -1.1589   -1.6253    2.3330 C.3       1 <0>        -0.1089
     17 C16         0.2334   -1.0073    2.1998 C.3       1 <0>        -0.0071
     18 N2          0.8844   -1.5738    1.0085 N.4       1 <0>        -0.3843
     19 C17         2.3120   -1.2274    1.0167 C.3       1 <0>         0.0646
     20 C18         2.9860   -1.9025    2.1833 C.ar      1 <0>        -0.3986
     21 C19         3.2472   -1.2066    3.3476 C.ar      1 <0>         0.2601
     22 N3          3.8407   -1.8289    4.3554 N.ar      1 <0>        -0.5929
     23 C20         4.1851   -3.1047    4.2601 C.ar      1 <0>         0.6300
     24 N4          3.9528   -3.8069    3.1615 N.ar      1 <0>        -0.6198
     25 C21         3.3556   -3.2473    2.1140 C.ar      1 <0>         0.5078
     26 N5          3.1086   -3.9859    0.9683 N.pl3     1 <0>        -0.8353
     27 N6          4.8033   -3.7188    5.3353 N.pl3     1 <0>        -0.8001
     28 C22        -3.8217   -2.1536    3.4460 C.3       1 <0>         0.0692
     29 H1          1.6239    0.6388   -0.3153 H         1 <0>         0.0877
     30 H2          0.0770    0.9007   -1.1560 H         1 <0>         0.1085
     31 H3          0.1481    0.9762    0.6209 H         1 <0>         0.0833
     32 H4          0.6598   -1.5082   -1.0732 H         1 <0>         0.1457
     33 H5         -1.4250   -0.9168   -2.2622 H         1 <0>         0.1369
     34 H6         -3.8564   -1.2382   -2.2964 H         1 <0>         0.1385
     35 H7         -6.5343   -1.6889   -1.6781 H         1 <0>         0.1301
     36 H8         -8.6894   -2.1491   -0.5892 H         1 <0>         0.1341
     37 H9         -8.7903   -2.5535    1.8352 H         1 <0>         0.1357
     38 H10        -6.7471   -2.5013    3.1916 H         1 <0>         0.1267
     39 H11        -1.7144   -1.1024    3.1115 H         1 <0>         0.1205
     40 H12        -1.0640   -2.6774    2.6018 H         1 <0>         0.0965
     41 H13         0.1451    0.0736    2.0897 H         1 <0>         0.1384
     42 H14         0.8239   -1.2408    3.0857 H         1 <0>         0.1328
     43 H15         2.7725   -1.5625    0.0874 H         1 <0>         0.1306
     44 H16         2.4231   -0.1470    1.1084 H         1 <0>         0.1444
     45 H17         2.9708   -0.1662    3.4352 H         1 <0>         0.1744
     46 H18         2.6761   -3.5693    0.2066 H         1 <0>         0.4047
     47 H19         3.3683   -4.9196    0.9278 H         1 <0>         0.4208
     48 H20         4.9795   -3.2157    6.1457 H         1 <0>         0.4244
     49 H21         5.0605   -4.6524    5.2785 H         1 <0>         0.4223
     50 H22        -3.4733   -3.1740    3.6056 H         1 <0>         0.0720
     51 H23        -3.0296   -1.4535    3.7118 H         1 <0>         0.0839
     52 H24        -4.6961   -1.9666    4.0693 H         1 <0>         0.0910
     53 H25         0.7789   -2.5773    1.0110 H         1 <0>         0.4184
@<TRIPOS>BOND
     1    1    2 1
     2    1   29 1
     3    1   30 1
     4    1   31 1
     5    2   18 1
     6    2    3 1
     7    2   32 1
     8    3   15 ar
     9    3    4 ar
    10    4    5 ar
    11    4   33 1
    12    5    6 ar
    13    5   34 1
    14    6   14 ar
    15    6    7 1
    16    7   12 ar
    17    7    8 ar
    18    8    9 ar
    19    8   35 1
    20    9   10 ar
    21    9   36 1
    22   10   11 ar
    23   10   37 1
    24   11   12 ar
    25   11   38 1
    26   12   13 1
    27   13   14 1
    28   13   28 1
    29   14   15 ar
    30   15   16 1
    31   16   17 1
    32   16   39 1
    33   16   40 1
    34   17   18 1
    35   17   41 1
    36   17   42 1
    37   18   19 1
    38   18   53 1
    39   19   20 1
    40   19   43 1
    41   19   44 1
    42   20   25 ar
    43   20   21 ar
    44   21   22 ar
    45   21   45 1
    46   22   23 ar
    47   23   24 ar
    48   23   27 1
    49   24   25 ar
    50   25   26 1
    51   26   46 1
    52   26   47 1
    53   27   48 1
    54   27   49 1
    55   28   50 1
    56   28   51 1
    57   28   52 1
@<TRIPOS>MOLECULE
CHEMBL308758__1
   53    57     0     0     0
SMALL
USER_CHARGES

@<TRIPOS>ATOM
      1 C1          0.5519    0.4669   -0.2903 C.3       1 <0>        -0.1883
      2 C2          0.2530   -1.0316   -0.2111 C.3       1 <0>         0.1272
      3 C3         -1.2390   -1.2390   -0.1623 C.ar      1 <0>        -0.0471
      4 C4         -1.9561   -1.1216   -1.3500 C.ar      1 <0>        -0.1449
      5 C5         -3.3205   -1.2962   -1.3673 C.ar      1 <0>        -0.0556
      6 C6         -3.9918   -1.5931   -0.1838 C.ar      1 <0>        -0.0984
      7 C7         -5.4079   -1.8344    0.1480 C.ar      1 <0>        -0.1070
      8 C8         -6.5795   -1.8508   -0.6051 C.ar      1 <0>        -0.0597
      9 C9         -7.7845   -2.1150    0.0093 C.ar      1 <0>        -0.1468
     10 C10        -7.8332   -2.3645    1.3724 C.ar      1 <0>        -0.0792
     11 C11        -6.6815   -2.3516    2.1292 C.ar      1 <0>        -0.1433
     12 C12        -5.4552   -2.0859    1.5272 C.ar      1 <0>         0.1390
     13 N1         -4.1680   -2.0092    2.0288 N.pl3     1 <0>        -0.5071
     14 C13        -3.2752   -1.7138    1.0138 C.ar      1 <0>         0.1452
     15 C14        -1.8906   -1.5352    1.0115 C.ar      1 <0>        -0.0923
     16 C15        -1.1486   -1.6826    2.3152 C.3       1 <0>        -0.0767
     17 C16         0.2431   -1.0607    2.1983 C.3       1 <0>         0.0464
     18 N2          0.8893   -1.5890    0.9862 N.3       1 <0>        -0.5267
     19 C17         2.3315   -1.3098    0.9943 C.3       1 <0>         0.0926
     20 C18         2.9894   -2.0976    2.0978 C.ar      1 <0>        -0.2197
     21 C19         3.2993   -1.5003    3.3041 C.ar      1 <0>         0.2041
     22 N3          3.8771   -2.2204    4.2544 N.ar      1 <0>        -0.5725
     23 C20         4.1602   -3.5004    4.0619 C.ar      1 <0>         0.6638
     24 N4          3.8798   -4.1100    2.9201 N.ar      1 <0>        -0.5764
     25 C21         3.2944   -3.4495    1.9261 C.ar      1 <0>         0.5445
     26 N5          2.9970   -4.0912    0.7349 N.pl3     1 <0>        -0.7651
     27 N6          4.7644   -4.2181    5.0793 N.pl3     1 <0>        -0.7924
     28 C22        -3.8028   -2.2113    3.4331 C.3       1 <0>         0.0739
     29 H1          1.6297    0.6200   -0.3447 H         1 <0>         0.0638
     30 H2          0.0803    0.8849   -1.1796 H         1 <0>         0.0759
     31 H3          0.1587    0.9632    0.5969 H         1 <0>         0.0632
     32 H4          0.6555   -1.5257   -1.0953 H         1 <0>         0.1025
     33 H5         -1.4355   -0.8906   -2.2676 H         1 <0>         0.1274
     34 H6         -3.8680   -1.2038   -2.2936 H         1 <0>         0.1290
     35 H7         -6.5439   -1.6568   -1.6669 H         1 <0>         0.1269
     36 H8         -8.6940   -2.1282   -0.5730 H         1 <0>         0.1300
     37 H9         -8.7820   -2.5710    1.8452 H         1 <0>         0.1314
     38 H10        -6.7307   -2.5475    3.1901 H         1 <0>         0.1225
     39 H11        -1.7042   -1.1795    3.1065 H         1 <0>         0.0812
     40 H12        -1.0527   -2.7406    2.5591 H         1 <0>         0.0778
     41 H13         0.1550    0.0231    2.1235 H         1 <0>         0.0572
     42 H14         0.8365   -1.3235    3.0740 H         1 <0>         0.0691
     43 H15         2.7627   -1.5977    0.0355 H         1 <0>         0.1024
     44 H16         2.4946   -0.2451    1.1611 H         1 <0>         0.0753
     45 H17         3.0734   -0.4575    3.4707 H         1 <0>         0.2112
     46 H18         2.5738   -3.6013    0.0126 H         1 <0>         0.4346
     47 H19         3.2119   -5.0305    0.6232 H         1 <0>         0.4272
     48 H20         4.9753   -3.7834    5.9204 H         1 <0>         0.4303
     49 H21         4.9769   -5.1558    4.9513 H         1 <0>         0.4448
     50 H22        -3.4535   -3.2341    3.5741 H         1 <0>         0.0665
     51 H23        -3.0094   -1.5155    3.7059 H         1 <0>         0.0841
     52 H24        -4.6739   -2.0345    4.0641 H         1 <0>         0.0841
     53 H25         4.0963   -1.8045    5.1028 H         1 <0>         0.4439
@<TRIPOS>BOND
     1    1    2 1
     2    1   29 1
     3    1   30 1
     4    1   31 1
     5    2   18 1
     6    2    3 1
     7    2   32 1
     8    3   15 ar
     9    3    4 ar
    10    4    5 ar
    11    4   33 1
    12    5    6 ar
    13    5   34 1
    14    6   14 ar
    15    6    7 1
    16    7   12 ar
    17    7    8 ar
    18    8    9 ar
    19    8   35 1
    20    9   10 ar
    21    9   36 1
    22   10   11 ar
    23   10   37 1
    24   11   12 ar
    25   11   38 1
    26   12   13 1
    27   13   14 1
    28   13   28 1
    29   14   15 ar
    30   15   16 1
    31   16   17 1
    32   16   39 1
    33   16   40 1
    34   17   18 1
    35   17   41 1
    36   17   42 1
    37   18   19 1
    38   19   20 1
    39   19   43 1
    40   19   44 1
    41   20   25 ar
    42   20   21 ar
    43   21   22 ar
    44   21   45 1
    45   22   23 ar
    46   22   53 1
    47   23   24 ar
    48   23   27 1
    49   24   25 ar
    50   25   26 1
    51   26   46 1
    52   26   47 1
    53   27   48 1
    54   27   49 1
    55   28   50 1
    56   28   51 1
    57   28   52 1
@<TRIPOS>MOLECULE
CHEMBL308758__2
   54    58     0     0     0
SMALL
USER_CHARGES

@<TRIPOS>ATOM
      1 C1          0.5463    0.4825   -0.2655 C.3       1 <0>        -0.1842
      2 C2          0.2514   -1.0169   -0.1900 C.3       1 <0>         0.0844
      3 C3         -1.2400   -1.2283   -0.1502 C.ar      1 <0>        -0.1015
      4 C4         -1.9501   -1.1339   -1.3438 C.ar      1 <0>        -0.1305
      5 C5         -3.3139   -1.3139   -1.3656 C.ar      1 <0>        -0.0383
      6 C6         -3.9913   -1.5936   -0.1814 C.ar      1 <0>        -0.0722
      7 C7         -5.4085   -1.8336    0.1461 C.ar      1 <0>        -0.1154
      8 C8         -6.5757   -1.8657   -0.6134 C.ar      1 <0>        -0.0552
      9 C9         -7.7834   -2.1242   -0.0020 C.ar      1 <0>        -0.1359
     10 C10        -7.8394   -2.3519    1.3647 C.ar      1 <0>        -0.0668
     11 C11        -6.6922   -2.3229    2.1279 C.ar      1 <0>        -0.1397
     12 C12        -5.4631   -2.0633    1.5288 C.ar      1 <0>         0.1392
     13 N1         -4.1792   -1.9744    2.0367 N.pl3     1 <0>        -0.5045
     14 C13        -3.2814   -1.6920    1.0225 C.ar      1 <0>         0.1563
     15 C14        -1.8982   -1.5072    1.0246 C.ar      1 <0>        -0.1180
     16 C15        -1.1589   -1.6253    2.3330 C.3       1 <0>        -0.1077
     17 C16         0.2334   -1.0073    2.1998 C.3       1 <0>        -0.0109
     18 N2          0.8844   -1.5738    1.0085 N.4       1 <0>        -0.3886
     19 C17         2.3120   -1.2274    1.0167 C.3       1 <0>         0.0475
     20 C18         2.9860   -1.9025    2.1833 C.ar      1 <0>        -0.3170
     21 C19         3.2472   -1.2066    3.3476 C.ar      1 <0>         0.2697
     22 N3          3.8407   -1.8289    4.3554 N.ar      1 <0>        -0.5692
     23 C20         4.1855   -3.1046    4.2600 C.ar      1 <0>         0.6744
     24 N4          3.9532   -3.8068    3.1613 N.ar      1 <0>        -0.5601
     25 C21         3.3556   -3.2473    2.1140 C.ar      1 <0>         0.5437
     26 N5          3.1086   -3.9859    0.9683 N.pl3     1 <0>        -0.7801
     27 N6          4.8041   -3.7186    5.3350 N.pl3     1 <0>        -0.7667
     28 C22        -3.8217   -2.1536    3.4460 C.3       1 <0>         0.0708
     29 H1          1.6239    0.6388   -0.3153 H         1 <0>         0.0868
     30 H2          0.0770    0.9007   -1.1560 H         1 <0>         0.1170
     31 H3          0.1481    0.9762    0.6209 H         1 <0>         0.0854
     32 H4          0.6598   -1.5082   -1.0732 H         1 <0>         0.1522
     33 H5         -1.4250   -0.9168   -2.2622 H         1 <0>         0.1387
     34 H6         -3.8564   -1.2382   -2.2964 H         1 <0>         0.1420
     35 H7         -6.5343   -1.6889   -1.6781 H         1 <0>         0.1323
     36 H8         -8.6894   -2.1491   -0.5892 H         1 <0>         0.1375
     37 H9         -8.7903   -2.5535    1.8352 H         1 <0>         0.1389
     38 H10        -6.7471   -2.5013    3.1916 H         1 <0>         0.1279
     39 H11        -1.7144   -1.1024    3.1115 H         1 <0>         0.1252
     40 H12        -1.0640   -2.6774    2.6018 H         1 <0>         0.0969
     41 H13         0.1451    0.0736    2.0897 H         1 <0>         0.1477
     42 H14         0.8239   -1.2408    3.0857 H         1 <0>         0.1207
     43 H15         2.7725   -1.5625    0.0874 H         1 <0>         0.1546
     44 H16         2.4231   -0.1470    1.1084 H         1 <0>         0.1661
     45 H17         2.9708   -0.1662    3.4352 H         1 <0>         0.2269
     46 H18         2.6761   -3.5693    0.2066 H         1 <0>         0.4242
     47 H19         3.3683   -4.9196    0.9278 H         1 <0>         0.4418
     48 H20         4.9803   -3.2155    6.1454 H         1 <0>         0.4390
     49 H21         5.0616   -4.6521    5.2780 H         1 <0>         0.4533
     50 H22        -3.4733   -3.1740    3.6056 H         1 <0>         0.0711
     51 H23        -3.0296   -1.4535    3.7118 H         1 <0>         0.0800
     52 H24        -4.6961   -1.9666    4.0693 H         1 <0>         0.0934
     53 H25         0.7789   -2.5773    1.0110 H         1 <0>         0.4208
     54 H26         4.0258   -1.3435    5.1747 H         1 <0>         0.4560
@<TRIPOS>BOND
     1    1    2 1
     2    1   29 1
     3    1   30 1
     4    1   31 1
     5    2   18 1
     6    2    3 1
     7    2   32 1
     8    3   15 ar
     9    3    4 ar
    10    4    5 ar
    11    4   33 1
    12    5    6 ar
    13    5   34 1
    14    6   14 ar
    15    6    7 1
    16    7   12 ar
    17    7    8 ar
    18    8    9 ar
    19    8   35 1
    20    9   10 ar
    21    9   36 1
    22   10   11 ar
    23   10   37 1
    24   11   12 ar
    25   11   38 1
    26   12   13 1
    27   13   14 1
    28   13   28 1
    29   14   15 ar
    30   15   16 1
    31   16   17 1
    32   16   39 1
    33   16   40 1
    34   17   18 1
    35   17   41 1
    36   17   42 1
    37   18   19 1
    38   18   53 1
    39   19   20 1
    40   19   43 1
    41   19   44 1
    42   20   25 ar
    43   20   21 ar
    44   21   22 ar
    45   21   45 1
    46   22   23 ar
    47   22   54 1
    48   23   24 ar
    49   23   27 1
    50   24   25 ar
    51   25   26 1
    52   26   46 1
    53   26   47 1
    54   27   48 1
    55   27   49 1
    56   28   50 1
    57   28   51 1
    58   28   52 1
@<TRIPOS>MOLECULE
CHEMBL308758__3
   53    57     0     0     0
SMALL
USER_CHARGES

@<TRIPOS>ATOM
      1 C1          1.0610    2.1174   -0.0264 C.3       1 <0>        -0.1866
      2 C2          0.8647    0.6053    0.0994 C.3       1 <0>         0.0816
      3 C3          1.2866   -0.0588   -1.1858 C.ar      1 <0>        -0.0938
      4 C4          0.9391    0.5525   -2.3872 C.ar      1 <0>        -0.1321
      5 C5          1.2956   -0.0111   -3.5906 C.ar      1 <0>        -0.0441
      6 C6          2.0109   -1.2058   -3.6072 C.ar      1 <0>        -0.0794
      7 C7          2.5365   -2.0605   -4.6874 C.ar      1 <0>        -0.1130
      8 C8          2.5042   -1.9769   -6.0774 C.ar      1 <0>        -0.0564
      9 C9          3.1028   -2.9593   -6.8363 C.ar      1 <0>        -0.1411
     10 C10         3.7358   -4.0285   -6.2208 C.ar      1 <0>        -0.0716
     11 C11         3.7749   -4.1235   -4.8466 C.ar      1 <0>        -0.1403
     12 C12         3.1760   -3.1415   -4.0629 C.ar      1 <0>         0.1411
     13 N1          3.0626   -2.9831   -2.6931 N.pl3     1 <0>        -0.5040
     14 C13         2.3645   -1.8247   -2.4010 C.ar      1 <0>         0.1549
     15 C14         1.9956   -1.2371   -1.1903 C.ar      1 <0>        -0.1102
     16 C15         2.3958   -1.9207    0.0924 C.3       1 <0>        -0.1097
     17 C16         1.5763   -1.3614    1.2558 C.3       1 <0>        -0.0009
     18 N2          1.6608    0.1068    1.2242 N.4       1 <0>        -0.3854
     19 C17         1.1350    0.6569    2.4807 C.3       1 <0>         0.0641
     20 C18         2.0272    0.2430    3.6225 C.ar      1 <0>        -0.3989
     21 C19         1.6837   -0.8170    4.4389 C.ar      1 <0>         0.2603
     22 N3          2.4898   -1.1563    5.4341 N.ar      1 <0>        -0.5929
     23 C20         3.6160   -0.4941    5.6544 C.ar      1 <0>         0.6300
     24 N4          3.9810    0.5278    4.8952 N.ar      1 <0>        -0.6196
     25 C21         3.2227    0.9186    3.8757 C.ar      1 <0>         0.5078
     26 N5          3.6100    1.9842    3.0797 N.pl3     1 <0>        -0.8357
     27 N6          4.4311   -0.8796    6.7043 N.pl3     1 <0>        -0.8000
     28 C22         3.6040   -3.9090   -1.6952 C.3       1 <0>         0.0692
     29 H1          2.1150    2.3337   -0.2005 H         1 <0>         0.0833
     30 H2          0.4702    2.4922   -0.8622 H         1 <0>         0.1139
     31 H3          0.7375    2.6035    0.8940 H         1 <0>         0.0855
     32 H4         -0.1887    0.3939    0.2833 H         1 <0>         0.1485
     33 H5          0.3842    1.4789   -2.3745 H         1 <0>         0.1386
     34 H6          1.0224    0.4709   -4.5177 H         1 <0>         0.1386
     35 H7          2.0121   -1.1448   -6.5589 H         1 <0>         0.1301
     36 H8          3.0784   -2.8963   -7.9142 H         1 <0>         0.1341
     37 H9          4.2020   -4.7937   -6.8237 H         1 <0>         0.1357
     38 H10         4.2702   -4.9606   -4.3774 H         1 <0>         0.1267
     39 H11         2.2149   -2.9919    0.0037 H         1 <0>         0.1210
     40 H12         3.4556   -1.7477    0.2797 H         1 <0>         0.0962
     41 H13         0.5361   -1.6706    1.1529 H         1 <0>         0.1366
     42 H14         1.9794   -1.7311    2.1987 H         1 <0>         0.1330
     43 H15         1.1068    1.7447    2.4175 H         1 <0>         0.1316
     44 H16         0.1276    0.2766    2.6504 H         1 <0>         0.1429
     45 H17         0.7677   -1.3630    4.2680 H         1 <0>         0.1749
     46 H18         3.0492    2.2660    2.3401 H         1 <0>         0.4042
     47 H19         4.4419    2.4485    3.2619 H         1 <0>         0.4209
     48 H20         4.1751   -1.6262    7.2682 H         1 <0>         0.4244
     49 H21         5.2583   -0.4031    6.8764 H         1 <0>         0.4223
     50 H22         4.5651   -3.5381   -1.3391 H         1 <0>         0.0720
     51 H23         2.9111   -3.9859   -0.8573 H         1 <0>         0.0840
     52 H24         3.7386   -4.8919   -2.1468 H         1 <0>         0.0911
     53 H25         2.6230    0.3874    1.1075 H         1 <0>         0.4165
@<TRIPOS>BOND
     1    1    2 1
     2    1   29 1
     3    1   30 1
     4    1   31 1
     5    2   18 1
     6    2    3 1
     7    2   32 1
     8    3   15 ar
     9    3    4 ar
    10    4    5 ar
    11    4   33 1
    12    5    6 ar
    13    5   34 1
    14    6   14 ar
    15    6    7 1
    16    7   12 ar
    17    7    8 ar
    18    8    9 ar
    19    8   35 1
    20    9   10 ar
    21    9   36 1
    22   10   11 ar
    23   10   37 1
    24   11   12 ar
    25   11   38 1
    26   12   13 1
    27   13   14 1
    28   13   28 1
    29   14   15 ar
    30   15   16 1
    31   16   17 1
    32   16   39 1
    33   16   40 1
    34   17   18 1
    35   17   41 1
    36   17   42 1
    37   18   19 1
    38   18   53 1
    39   19   20 1
    40   19   43 1
    41   19   44 1
    42   20   25 ar
    43   20   21 ar
    44   21   22 ar
    45   21   45 1
    46   22   23 ar
    47   23   24 ar
    48   23   27 1
    49   24   25 ar
    50   25   26 1
    51   26   46 1
    52   26   47 1
    53   27   48 1
    54   27   49 1
    55   28   50 1
    56   28   51 1
    57   28   52 1
@<TRIPOS>MOLECULE
CHEMBL308758__4
   53    57     0     0     0
SMALL
USER_CHARGES

@<TRIPOS>ATOM
      1 C1          1.0719    2.1397   -0.0419 C.3       1 <0>        -0.1537
      2 C2          0.8715    0.6286    0.0906 C.3       1 <0>         0.1274
      3 C3          1.2936   -0.0432   -1.1908 C.ar      1 <0>        -0.0483
      4 C4          0.9278    0.5531   -2.3946 C.ar      1 <0>        -0.1461
      5 C5          1.2809   -0.0156   -3.5964 C.ar      1 <0>        -0.0557
      6 C6          2.0118   -1.2009   -3.6090 C.ar      1 <0>        -0.0982
      7 C7          2.5401   -2.0574   -4.6864 C.ar      1 <0>        -0.1070
      8 C8          2.4956   -1.9859   -6.0767 C.ar      1 <0>        -0.0597
      9 C9          3.1004   -2.9670   -6.8323 C.ar      1 <0>        -0.1468
     10 C10         3.7522   -4.0227   -6.2132 C.ar      1 <0>        -0.0791
     11 C11         3.8032   -4.1058   -4.8385 C.ar      1 <0>        -0.1433
     12 C12         3.1985   -3.1249   -4.0582 C.ar      1 <0>         0.1391
     13 N1          3.0942   -2.9564   -2.6889 N.pl3     1 <0>        -0.5071
     14 C13         2.3838   -1.8044   -2.4008 C.ar      1 <0>         0.1453
     15 C14         2.0181   -1.2116   -1.1909 C.ar      1 <0>        -0.0933
     16 C15         2.4436   -1.8811    0.0907 C.3       1 <0>        -0.0770
     17 C16         1.6244   -1.3380    1.2617 C.3       1 <0>         0.0517
     18 N2          1.6667    0.1324    1.2178 N.3       1 <0>        -0.5293
     19 C17         1.2012    0.7105    2.4855 C.3       1 <0>         0.0902
     20 C18         2.1824    0.3775    3.5797 C.ar      1 <0>        -0.2197
     21 C19         1.9376   -0.6621    4.4557 C.ar      1 <0>         0.2047
     22 N3          2.8202   -0.9298    5.4068 N.ar      1 <0>        -0.5723
     23 C20         3.9294   -0.2152    5.5272 C.ar      1 <0>         0.6636
     24 N4          4.2011    0.7895    4.7082 N.ar      1 <0>        -0.5760
     25 C21         3.3625    1.1092    3.7276 C.ar      1 <0>         0.5447
     26 N5          3.6521    2.1570    2.8688 N.pl3     1 <0>        -0.7661
     27 N6          4.8264   -0.5262    6.5343 N.pl3     1 <0>        -0.7923
     28 C22         3.6549   -3.8671   -1.6877 C.3       1 <0>         0.0739
     29 H1          2.1265    2.3523   -0.2173 H         1 <0>         0.0697
     30 H2          0.4819    2.5123   -0.8793 H         1 <0>         0.0782
     31 H3          0.7500    2.6308    0.8764 H         1 <0>         0.0592
     32 H4         -0.1824    0.4205    0.2749 H         1 <0>         0.0655
     33 H5          0.3603    1.4720   -2.3847 H         1 <0>         0.1297
     34 H6          0.9931    0.4548   -4.5250 H         1 <0>         0.1292
     35 H7          1.9890   -1.1642   -6.5610 H         1 <0>         0.1269
     36 H8          3.0670   -2.9132   -7.9105 H         1 <0>         0.1300
     37 H9          4.2237   -4.7867   -6.8135 H         1 <0>         0.1314
     38 H10         4.3132   -4.9326   -4.3665 H         1 <0>         0.1225
     39 H11         2.2858   -2.9563    0.0068 H         1 <0>         0.0818
     40 H12         3.5012   -1.6851    0.2674 H         1 <0>         0.0781
     41 H13         0.5922   -1.6773    1.1753 H         1 <0>         0.0526
     42 H14         2.0512   -1.6889    2.2013 H         1 <0>         0.0704
     43 H15         1.1234    1.7930    2.3843 H         1 <0>         0.1056
     44 H16         0.2239    0.2977    2.7358 H         1 <0>         0.0725
     45 H17         1.0361   -1.2501    4.3665 H         1 <0>         0.2117
     46 H18         3.0330    2.3870    2.1584 H         1 <0>         0.4337
     47 H19         4.4739    2.6605    2.9780 H         1 <0>         0.4273
     48 H20         4.6392   -1.2595    7.1410 H         1 <0>         0.4303
     49 H21         5.6422   -0.0109    6.6333 H         1 <0>         0.4449
     50 H22         4.6124   -3.4795   -1.3397 H         1 <0>         0.0664
     51 H23         2.9680   -3.9483   -0.8452 H         1 <0>         0.0842
     52 H24         3.8014   -4.8511   -2.1332 H         1 <0>         0.0842
     53 H25         2.6518   -1.6590    6.0238 H         1 <0>         0.4441
@<TRIPOS>BOND
     1    1    2 1
     2    1   29 1
     3    1   30 1
     4    1   31 1
     5    2   18 1
     6    2    3 1
     7    2   32 1
     8    3   15 ar
     9    3    4 ar
    10    4    5 ar
    11    4   33 1
    12    5    6 ar
    13    5   34 1
    14    6   14 ar
    15    6    7 1
    16    7   12 ar
    17    7    8 ar
    18    8    9 ar
    19    8   35 1
    20    9   10 ar
    21    9   36 1
    22   10   11 ar
    23   10   37 1
    24   11   12 ar
    25   11   38 1
    26   12   13 1
    27   13   14 1
    28   13   28 1
    29   14   15 ar
    30   15   16 1
    31   16   17 1
    32   16   39 1
    33   16   40 1
    34   17   18 1
    35   17   41 1
    36   17   42 1
    37   18   19 1
    38   19   20 1
    39   19   43 1
    40   19   44 1
    41   20   25 ar
    42   20   21 ar
    43   21   22 ar
    44   21   45 1
    45   22   23 ar
    46   22   53 1
    47   23   24 ar
    48   23   27 1
    49   24   25 ar
    50   25   26 1
    51   26   46 1
    52   26   47 1
    53   27   48 1
    54   27   49 1
    55   28   50 1
    56   28   51 1
    57   28   52 1
@<TRIPOS>MOLECULE
CHEMBL308758__5
   54    58     0     0     0
SMALL
USER_CHARGES

@<TRIPOS>ATOM
      1 C1          1.0610    2.1174   -0.0264 C.3       1 <0>        -0.1916
      2 C2          0.8647    0.6053    0.0994 C.3       1 <0>         0.0850
      3 C3          1.2866   -0.0588   -1.1858 C.ar      1 <0>        -0.1017
      4 C4          0.9391    0.5525   -2.3872 C.ar      1 <0>        -0.1312
      5 C5          1.2956   -0.0111   -3.5906 C.ar      1 <0>        -0.0388
      6 C6          2.0109   -1.2058   -3.6072 C.ar      1 <0>        -0.0720
      7 C7          2.5365   -2.0605   -4.6874 C.ar      1 <0>        -0.1154
      8 C8          2.5042   -1.9769   -6.0774 C.ar      1 <0>        -0.0551
      9 C9          3.1028   -2.9593   -6.8363 C.ar      1 <0>        -0.1359
     10 C10         3.7358   -4.0285   -6.2208 C.ar      1 <0>        -0.0668
     11 C11         3.7749   -4.1235   -4.8466 C.ar      1 <0>        -0.1397
     12 C12         3.1760   -3.1415   -4.0629 C.ar      1 <0>         0.1392
     13 N1          3.0626   -2.9831   -2.6931 N.pl3     1 <0>        -0.5046
     14 C13         2.3645   -1.8247   -2.4010 C.ar      1 <0>         0.1564
     15 C14         1.9956   -1.2371   -1.1903 C.ar      1 <0>        -0.1186
     16 C15         2.3958   -1.9207    0.0924 C.3       1 <0>        -0.1088
     17 C16         1.5763   -1.3614    1.2558 C.3       1 <0>        -0.0039
     18 N2          1.6608    0.1068    1.2242 N.4       1 <0>        -0.3901
     19 C17         1.1350    0.6569    2.4807 C.3       1 <0>         0.0474
     20 C18         2.0272    0.2430    3.6225 C.ar      1 <0>        -0.3176
     21 C19         1.6837   -0.8170    4.4389 C.ar      1 <0>         0.2704
     22 N3          2.4898   -1.1563    5.4341 N.ar      1 <0>        -0.5692
     23 C20         3.6158   -0.4938    5.6546 C.ar      1 <0>         0.6744
     24 N4          3.9808    0.5281    4.8954 N.ar      1 <0>        -0.5598
     25 C21         3.2227    0.9186    3.8757 C.ar      1 <0>         0.5437
     26 N5          3.6100    1.9842    3.0797 N.pl3     1 <0>        -0.7807
     27 N6          4.4307   -0.8790    6.7049 N.pl3     1 <0>        -0.7665
     28 C22         3.6040   -3.9090   -1.6952 C.3       1 <0>         0.0708
     29 H1          2.1150    2.3337   -0.2005 H         1 <0>         0.0863
     30 H2          0.4702    2.4922   -0.8622 H         1 <0>         0.1226
     31 H3          0.7375    2.6035    0.8940 H         1 <0>         0.0846
     32 H4         -0.1887    0.3939    0.2833 H         1 <0>         0.1548
     33 H5          0.3842    1.4789   -2.3745 H         1 <0>         0.1401
     34 H6          1.0224    0.4709   -4.5177 H         1 <0>         0.1421
     35 H7          2.0121   -1.1448   -6.5589 H         1 <0>         0.1324
     36 H8          3.0784   -2.8963   -7.9142 H         1 <0>         0.1375
     37 H9          4.2020   -4.7937   -6.8237 H         1 <0>         0.1389
     38 H10         4.2702   -4.9606   -4.3774 H         1 <0>         0.1279
     39 H11         2.2149   -2.9919    0.0037 H         1 <0>         0.1257
     40 H12         3.4556   -1.7477    0.2797 H         1 <0>         0.0966
     41 H13         0.5361   -1.6706    1.1529 H         1 <0>         0.1462
     42 H14         1.9794   -1.7311    2.1987 H         1 <0>         0.1207
     43 H15         1.1068    1.7447    2.4175 H         1 <0>         0.1544
     44 H16         0.1276    0.2766    2.6504 H         1 <0>         0.1655
     45 H17         0.7677   -1.3630    4.2680 H         1 <0>         0.2275
     46 H18         3.0492    2.2660    2.3401 H         1 <0>         0.4234
     47 H19         4.4419    2.4485    3.2619 H         1 <0>         0.4419
     48 H20         4.1747   -1.6257    7.2687 H         1 <0>         0.4390
     49 H21         5.2577   -0.4024    6.8771 H         1 <0>         0.4533
     50 H22         4.5651   -3.5381   -1.3391 H         1 <0>         0.0711
     51 H23         2.9111   -3.9859   -0.8573 H         1 <0>         0.0801
     52 H24         3.7386   -4.8919   -2.1468 H         1 <0>         0.0934
     53 H25         2.6230    0.3874    1.1075 H         1 <0>         0.4185
     54 H26         2.2520   -1.9001    6.0096 H         1 <0>         0.4561
@<TRIPOS>BOND
     1    1    2 1
     2    1   29 1
     3    1   30 1
     4    1   31 1
     5    2   18 1
     6    2    3 1
     7    2   32 1
     8    3   15 ar
     9    3    4 ar
    10    4    5 ar
    11    4   33 1
    12    5    6 ar
    13    5   34 1
    14    6   14 ar
    15    6    7 1
    16    7   12 ar
    17    7    8 ar
    18    8    9 ar
    19    8   35 1
    20    9   10 ar
    21    9   36 1
    22   10   11 ar
    23   10   37 1
    24   11   12 ar
    25   11   38 1
    26   12   13 1
    27   13   14 1
    28   13   28 1
    29   14   15 ar
    30   15   16 1
    31   16   17 1
    32   16   39 1
    33   16   40 1
    34   17   18 1
    35   17   41 1
    36   17   42 1
    37   18   19 1
    38   18   53 1
    39   19   20 1
    40   19   43 1
    41   19   44 1
    42   20   25 ar
    43   20   21 ar
    44   21   22 ar
    45   21   45 1
    46   22   23 ar
    47   22   54 1
    48   23   24 ar
    49   23   27 1
    50   24   25 ar
    51   25   26 1
    52   26   46 1
    53   26   47 1
    54   27   48 1
    55   27   49 1
    56   28   50 1
    57   28   51 1
    58   28   52 1
@<TRIPOS>MOLECULE
CHEMBL180476
   60    63     0     0     0
SMALL
NO_CHARGES

@<TRIPOS>ATOM
      1 C1          0.0251    3.2298    1.1619 C.3       1 <0>        -0.1049
      2 C2         -0.2184    1.7495    1.0185 C.ar      1 <0>        -0.1334
      3 C3         -0.5491    1.2204   -0.2130 C.ar      1 <0>        -0.0457
      4 C4         -0.7734   -0.1432   -0.3452 C.ar      1 <0>         0.0736
      5 C5         -0.6659   -0.9752    0.7609 C.ar      1 <0>        -0.0481
      6 C6         -0.3354   -0.4469    1.9928 C.ar      1 <0>        -0.1080
      7 C7         -0.1047    0.9165    2.1242 C.ar      1 <0>         0.2204
      8 N1          0.2362    1.4512    3.3705 N.pl3     1 <0>        -0.6138
      9 N2          1.0215    0.7355    4.2290 N.3       1 <0>        -0.4317
     10 C8          1.1639    1.4302    5.5155 C.3       1 <0>         0.0902
     11 C9          2.0347    0.6125    6.4343 C.ar      1 <0>        -0.1160
     12 C10         1.4562   -0.1863    7.4135 C.ar      1 <0>         0.0882
     13 N3          2.1832   -0.9128    8.2325 N.ar      1 <0>        -0.5122
     14 C11         3.5146   -0.9144    8.1584 C.ar      1 <0>         0.3568
     15 C12         4.1661   -0.1213    7.1818 C.ar      1 <0>        -0.1347
     16 C13         3.3979    0.6508    6.3023 C.ar      1 <0>        -0.0836
     17 C14         4.0512    1.5031    5.2450 C.3       1 <0>        -0.1258
     18 C15         5.5813   -0.1429    7.1259 C.ar      1 <0>         0.2998
     19 N4          6.2321   -0.9064    7.9924 N.ar      1 <0>        -0.5546
     20 C16         5.5822   -1.6362    8.8940 C.ar      1 <0>         0.5803
     21 N5          4.2656   -1.6519    8.9884 N.ar      1 <0>        -0.6023
     22 N6          6.3168   -2.4124    9.7699 N.pl3     1 <0>        -0.8268
     23 N7          6.2635    0.6094    6.1951 N.pl3     1 <0>        -0.8391
     24 C17        -0.2192   -1.3501    3.1935 C.3       1 <0>        -0.0953
     25 C18        -0.9106   -2.4552    0.6170 C.3       1 <0>        -0.1186
     26 N8         -1.1096   -0.6808   -1.5975 N.pl3     1 <0>        -0.3907
     27 C19        -2.2496   -0.4121   -2.2990 C.2       1 <0>        -0.0108
     28 C20        -2.2111   -1.1138   -3.4503 C.2       1 <0>        -0.1989
     29 C21        -1.0049   -1.8421   -3.4614 C.2       1 <0>        -0.2006
     30 C22        -0.3480   -1.5546   -2.3190 C.2       1 <0>        -0.0059
     31 C23        -0.6669    2.1232   -1.4138 C.3       1 <0>        -0.1228
     32 H1          1.0794    3.4432    0.9861 H         1 <0>         0.0679
     33 H2         -0.5812    3.7698    0.4347 H         1 <0>         0.0718
     34 H3         -0.2468    3.5469    2.1687 H         1 <0>         0.0580
     35 H4         -0.0849    2.3303    3.6254 H         1 <0>         0.3976
     36 H5          1.9237    0.5441    3.8196 H         1 <0>         0.3269
     37 H6          1.6226    2.4056    5.3529 H         1 <0>         0.0482
     38 H7          0.1811    1.5618    5.9681 H         1 <0>         0.0906
     39 H8          0.3803   -0.2104    7.5040 H         1 <0>         0.1531
     40 H9          4.3545    2.4547    5.6816 H         1 <0>         0.0678
     41 H10         4.9278    0.9873    4.8531 H         1 <0>         0.0965
     42 H11         3.3438    1.6836    4.4356 H         1 <0>         0.0575
     43 H12         7.2854   -2.4168    9.7188 H         1 <0>         0.4255
     44 H13         5.8638   -2.9529   10.4360 H         1 <0>         0.4111
     45 H14         5.9955    1.5253    6.0212 H         1 <0>         0.4047
     46 H15         7.0118    0.2233    5.7136 H         1 <0>         0.3971
     47 H16         0.8166   -1.6690    3.3094 H         1 <0>         0.0634
     48 H17        -0.5353   -0.8103    4.0861 H         1 <0>         0.0861
     49 H18        -0.8550   -2.2243    3.0534 H         1 <0>         0.0541
     50 H19         0.0268   -2.9568    0.3766 H         1 <0>         0.0722
     51 H20        -1.3048   -2.8510    1.5530 H         1 <0>         0.0753
     52 H21        -1.6308   -2.6284   -0.1827 H         1 <0>         0.0684
     53 H22        -3.0449    0.2482   -1.9861 H         1 <0>         0.1574
     54 H23        -2.9666   -1.1170   -4.2221 H         1 <0>         0.1354
     55 H24        -0.6663   -2.5056   -4.2435 H         1 <0>         0.1352
     56 H25         0.6131   -1.9495   -2.0245 H         1 <0>         0.1562
     57 H26         0.3013    2.1972   -1.9091 H         1 <0>         0.0721
     58 H27        -1.3995    1.7111   -2.1078 H         1 <0>         0.0738
     59 H28        -0.9876    3.1143   -1.0932 H         1 <0>         0.0730
     60 H29         3.8382   -2.2015    9.6637 H         1 <0>         0.4183
@<TRIPOS>BOND
     1    1    2 1
     2    1   32 1
     3    1   33 1
     4    1   34 1
     5    2    7 ar
     6    2    3 ar
     7    3    4 ar
     8    3   31 1
     9    4    5 ar
    10    4   26 1
    11    5    6 ar
    12    5   25 1
    13    6    7 ar
    14    6   24 1
    15    7    8 1
    16    8    9 1
    17    8   35 1
    18    9   10 1
    19    9   36 1
    20   10   11 1
    21   10   37 1
    22   10   38 1
    23   11   16 ar
    24   11   12 ar
    25   12   13 ar
    26   12   39 1
    27   13   14 ar
    28   14   21 ar
    29   14   15 ar
    30   15   16 ar
    31   15   18 ar
    32   16   17 1
    33   17   40 1
    34   17   41 1
    35   17   42 1
    36   18   19 ar
    37   18   23 1
    38   19   20 ar
    39   20   21 ar
    40   20   22 1
    41   21   60 1
    42   22   43 1
    43   22   44 1
    44   23   45 1
    45   23   46 1
    46   24   47 1
    47   24   48 1
    48   24   49 1
    49   25   50 1
    50   25   51 1
    51   25   52 1
    52   26   30 1
    53   26   27 1
    54   27   28 2
    55   27   53 1
    56   28   29 1
    57   28   54 1
    58   29   30 2
    59   29   55 1
    60   30   56 1
    61   31   57 1
    62   31   58 1
    63   31   59 1
@<TRIPOS>MOLECULE
CHEMBL180476__1
   59    62     0     0     0
SMALL
NO_CHARGES

@<TRIPOS>ATOM
      1 C1          0.0251    3.2298    1.1619 C.3       1 <0>        -0.1050
      2 C2         -0.2184    1.7495    1.0185 C.ar      1 <0>        -0.1323
      3 C3         -0.5491    1.2204   -0.2130 C.ar      1 <0>        -0.0458
      4 C4         -0.7734   -0.1432   -0.3452 C.ar      1 <0>         0.0756
      5 C5         -0.6659   -0.9752    0.7609 C.ar      1 <0>        -0.0480
      6 C6         -0.3354   -0.4469    1.9928 C.ar      1 <0>        -0.1076
      7 C7         -0.1047    0.9165    2.1242 C.ar      1 <0>         0.2185
      8 N1          0.2362    1.4512    3.3705 N.pl3     1 <0>        -0.6138
      9 N2          1.0215    0.7355    4.2290 N.3       1 <0>        -0.4333
     10 C8          1.1639    1.4302    5.5155 C.3       1 <0>         0.0925
     11 C9          2.0347    0.6125    6.4343 C.ar      1 <0>        -0.1880
     12 C10         1.4562   -0.1863    7.4135 C.ar      1 <0>         0.2143
     13 N3          2.1832   -0.9128    8.2325 N.ar      1 <0>        -0.4878
     14 C11         3.5146   -0.9144    8.1584 C.ar      1 <0>         0.4143
     15 C12         4.1661   -0.1213    7.1818 C.ar      1 <0>        -0.2774
     16 C13         3.3979    0.6508    6.3023 C.ar      1 <0>         0.0480
     17 C14         4.0512    1.5031    5.2450 C.3       1 <0>        -0.1523
     18 C15         5.5813   -0.1429    7.1259 C.ar      1 <0>         0.5226
     19 N4          6.2321   -0.9064    7.9924 N.ar      1 <0>        -0.6144
     20 C16         5.5822   -1.6362    8.8940 C.ar      1 <0>         0.6231
     21 N5          4.2656   -1.6519    8.9884 N.ar      1 <0>        -0.5891
     22 N6          6.3168   -2.4124    9.7699 N.pl3     1 <0>        -0.8106
     23 N7          6.2635    0.6094    6.1951 N.pl3     1 <0>        -0.8481
     24 C17        -0.2192   -1.3501    3.1935 C.3       1 <0>        -0.0962
     25 C18        -0.9106   -2.4552    0.6170 C.3       1 <0>        -0.1192
     26 N8         -1.1096   -0.6808   -1.5975 N.pl3     1 <0>        -0.3917
     27 C19        -2.2496   -0.4121   -2.2990 C.2       1 <0>        -0.0108
     28 C20        -2.2111   -1.1138   -3.4503 C.2       1 <0>        -0.1983
     29 C21        -1.0049   -1.8421   -3.4614 C.2       1 <0>        -0.2000
     30 C22        -0.3480   -1.5546   -2.3190 C.2       1 <0>        -0.0062
     31 C23        -0.6669    2.1232   -1.4138 C.3       1 <0>        -0.1232
     32 H1          1.0794    3.4432    0.9861 H         1 <0>         0.0678
     33 H2         -0.5812    3.7698    0.4347 H         1 <0>         0.0722
     34 H3         -0.2468    3.5469    2.1687 H         1 <0>         0.0582
     35 H4         -0.0849    2.3303    3.6254 H         1 <0>         0.3988
     36 H5          1.9237    0.5441    3.8196 H         1 <0>         0.3251
     37 H6          1.6226    2.4056    5.3529 H         1 <0>         0.0508
     38 H7          0.1811    1.5618    5.9681 H         1 <0>         0.0965
     39 H8          0.3803   -0.2104    7.5040 H         1 <0>         0.1681
     40 H9          4.3545    2.4547    5.6816 H         1 <0>         0.0872
     41 H10         4.9278    0.9873    4.8531 H         1 <0>         0.1035
     42 H11         3.3438    1.6836    4.4356 H         1 <0>         0.0724
     43 H12         7.2854   -2.4168    9.7188 H         1 <0>         0.4163
     44 H13         5.8638   -2.9529   10.4360 H         1 <0>         0.4191
     45 H14         5.9955    1.5253    6.0212 H         1 <0>         0.4171
     46 H15         7.0118    0.2233    5.7136 H         1 <0>         0.4110
     47 H16         0.8166   -1.6690    3.3094 H         1 <0>         0.0630
     48 H17        -0.5353   -0.8103    4.0861 H         1 <0>         0.0862
     49 H18        -0.8550   -2.2243    3.0534 H         1 <0>         0.0553
     50 H19         0.0268   -2.9568    0.3766 H         1 <0>         0.0724
     51 H20        -1.3048   -2.8510    1.5530 H         1 <0>         0.0758
     52 H21        -1.6308   -2.6284   -0.1827 H         1 <0>         0.0688
     53 H22        -3.0449    0.2482   -1.9861 H         1 <0>         0.1576
     54 H23        -2.9666   -1.1170   -4.2221 H         1 <0>         0.1357
     55 H24        -0.6663   -2.5056   -4.2435 H         1 <0>         0.1354
     56 H25         0.6131   -1.9495   -2.0245 H         1 <0>         0.1563
     57 H26         0.3013    2.1972   -1.9091 H         1 <0>         0.0723
     58 H27        -1.3995    1.7111   -2.1078 H         1 <0>         0.0742
     59 H28        -0.9876    3.1143   -1.0932 H         1 <0>         0.0732
@<TRIPOS>BOND
     1    1    2 1
     2    1   32 1
     3    1   33 1
     4    1   34 1
     5    2    7 ar
     6    2    3 ar
     7    3    4 ar
     8    3   31 1
     9    4    5 ar
    10    4   26 1
    11    5    6 ar
    12    5   25 1
    13    6    7 ar
    14    6   24 1
    15    7    8 1
    16    8    9 1
    17    8   35 1
    18    9   10 1
    19    9   36 1
    20   10   11 1
    21   10   37 1
    22   10   38 1
    23   11   16 ar
    24   11   12 ar
    25   12   13 ar
    26   12   39 1
    27   13   14 ar
    28   14   21 ar
    29   14   15 ar
    30   15   16 ar
    31   15   18 ar
    32   16   17 1
    33   17   40 1
    34   17   41 1
    35   17   42 1
    36   18   19 ar
    37   18   23 1
    38   19   20 ar
    39   20   21 ar
    40   20   22 1
    41   22   43 1
    42   22   44 1
    43   23   45 1
    44   23   46 1
    45   24   47 1
    46   24   48 1
    47   24   49 1
    48   25   50 1
    49   25   51 1
    50   25   52 1
    51   26   30 1
    52   26   27 1
    53   27   28 2
    54   27   53 1
    55   28   29 1
    56   28   54 1
    57   29   30 2
    58   29   55 1
    59   30   56 1
    60   31   57 1
    61   31   58 1
    62   31   59 1
@<TRIPOS>MOLECULE
CHEMBL355151
   33    35     0     0     0
SMALL
USER_CHARGES

@<TRIPOS>ATOM
      1 C1         -0.0228    1.3729   -0.2130 C.ar      1 <0>        -0.0876
      2 C2          1.1595    2.0854   -0.3107 C.ar      1 <0>        -0.1173
      3 C3          2.3690    1.4229   -0.3203 C.ar      1 <0>        -0.0781
      4 C4          2.3987    0.0283   -0.2310 C.ar      1 <0>        -0.0307
      5 C5          1.2003   -0.6844   -0.1326 C.ar      1 <0>        -0.0852
      6 C6         -0.0014   -0.0080   -0.1242 C.ar      1 <0>        -0.1185
      7 C7          3.6506   -0.6668   -0.2408 C.1       1 <0>        -0.0238
      8 C8          4.6770   -1.2368   -0.2489 C.1       1 <0>        -0.1792
      9 C9          5.9289   -1.9319   -0.2587 C.ar      1 <0>         0.1250
     10 C10         7.1261   -1.2280   -0.3512 C.ar      1 <0>        -0.1032
     11 C11         8.3394   -1.8996   -0.3609 C.ar      1 <0>        -0.0137
     12 C12         8.3950   -3.2616   -0.2805 C.ar      1 <0>        -0.1440
     13 C13         7.2129   -4.0090   -0.1860 C.ar      1 <0>         0.2047
     14 C14         5.9661   -3.3412   -0.1688 C.ar      1 <0>        -0.1816
     15 C15         4.7889   -4.1163   -0.0673 C.ar      1 <0>         0.5728
     16 N1          4.9078   -5.4344    0.0127 N.ar      1 <0>        -0.5830
     17 C16         6.0997   -6.0241   -0.0013 C.ar      1 <0>         0.6865
     18 N2          7.2283   -5.3485   -0.1058 N.ar      1 <0>        -0.5792
     19 N3          6.1582   -7.4033    0.0857 N.pl3     1 <0>        -0.7865
     20 N4          3.5468   -3.5165   -0.0512 N.pl3     1 <0>        -0.8014
     21 H1         -0.9668    1.8975   -0.2014 H         1 <0>         0.1344
     22 H2          1.1350    3.1629   -0.3799 H         1 <0>         0.1365
     23 H3          3.2909    1.9803   -0.3970 H         1 <0>         0.1323
     24 H4          1.2155   -1.7621   -0.0636 H         1 <0>         0.1280
     25 H5         -0.9282   -0.5572   -0.0478 H         1 <0>         0.1356
     26 H6          7.1100   -0.1501   -0.4163 H         1 <0>         0.1572
     27 H7          9.2572   -1.3350   -0.4336 H         1 <0>         0.1627
     28 H8          9.3511   -3.7637   -0.2901 H         1 <0>         0.1610
     29 H9          5.3402   -7.9200    0.1552 H         1 <0>         0.4454
     30 H10         7.0172   -7.8538    0.0773 H         1 <0>         0.4311
     31 H11         2.8060   -3.9223   -0.5282 H         1 <0>         0.4268
     32 H12         3.4142   -2.6888    0.4369 H         1 <0>         0.4312
     33 H13         8.0748   -5.8221   -0.1125 H         1 <0>         0.4419
@<TRIPOS>BOND
     1    1    6 ar
     2    1    2 ar
     3    1   21 1
     4    2    3 ar
     5    2   22 1
     6    3    4 ar
     7    3   23 1
     8    4    5 ar
     9    4    7 1
    10    5    6 ar
    11    5   24 1
    12    6   25 1
    13    7    8 3
    14    8    9 1
    15    9   14 ar
    16    9   10 ar
    17   10   11 ar
    18   10   26 1
    19   11   12 ar
    20   11   27 1
    21   12   13 ar
    22   12   28 1
    23   13   18 ar
    24   13   14 ar
    25   14   15 ar
    26   15   16 ar
    27   15   20 1
    28   16   17 ar
    29   17   18 ar
    30   17   19 1
    31   18   33 1
    32   19   29 1
    33   19   30 1
    34   20   31 1
    35   20   32 1
@<TRIPOS>MOLECULE
CHEMBL355151__1
   32    34     0     0     0
SMALL
USER_CHARGES

@<TRIPOS>ATOM
      1 C1         -0.0228    1.3729   -0.2130 C.ar      1 <0>        -0.1049
      2 C2          1.1595    2.0854   -0.3107 C.ar      1 <0>        -0.1186
      3 C3          2.3690    1.4229   -0.3203 C.ar      1 <0>        -0.0907
      4 C4          2.3987    0.0283   -0.2310 C.ar      1 <0>         0.0045
      5 C5          1.2003   -0.6844   -0.1326 C.ar      1 <0>        -0.0929
      6 C6         -0.0014   -0.0080   -0.1242 C.ar      1 <0>        -0.1187
      7 C7          3.6506   -0.6668   -0.2408 C.1       1 <0>        -0.1066
      8 C8          4.6770   -1.2368   -0.2489 C.1       1 <0>        -0.1097
      9 C9          5.9289   -1.9319   -0.2587 C.ar      1 <0>         0.0747
     10 C10         7.1261   -1.2280   -0.3512 C.ar      1 <0>        -0.1240
     11 C11         8.3394   -1.8996   -0.3609 C.ar      1 <0>        -0.0642
     12 C12         8.3950   -3.2616   -0.2805 C.ar      1 <0>        -0.1151
     13 C13         7.2129   -4.0090   -0.1860 C.ar      1 <0>         0.2310
     14 C14         5.9661   -3.3412   -0.1688 C.ar      1 <0>        -0.2135
     15 C15         4.7889   -4.1163   -0.0673 C.ar      1 <0>         0.5130
     16 N1          4.9078   -5.4344    0.0127 N.ar      1 <0>        -0.6157
     17 C16         6.0997   -6.0241   -0.0013 C.ar      1 <0>         0.6051
     18 N2          7.2283   -5.3485   -0.1058 N.ar      1 <0>        -0.5995
     19 N3          6.1582   -7.4033    0.0857 N.pl3     1 <0>        -0.8182
     20 N4          3.5468   -3.5165   -0.0512 N.pl3     1 <0>        -0.8457
     21 H1         -0.9668    1.8975   -0.2014 H         1 <0>         0.1278
     22 H2          1.1350    3.1629   -0.3799 H         1 <0>         0.1302
     23 H3          3.2909    1.9803   -0.3970 H         1 <0>         0.1288
     24 H4          1.2155   -1.7621   -0.0636 H         1 <0>         0.1274
     25 H5         -0.9282   -0.5572   -0.0478 H         1 <0>         0.1300
     26 H6          7.1100   -0.1501   -0.4163 H         1 <0>         0.1337
     27 H7          9.2572   -1.3350   -0.4336 H         1 <0>         0.1386
     28 H8          9.3511   -3.7637   -0.2901 H         1 <0>         0.1416
     29 H9          5.3402   -7.9200    0.1552 H         1 <0>         0.4136
     30 H10         7.0172   -7.8538    0.0773 H         1 <0>         0.4162
     31 H11         2.8060   -3.9223   -0.5282 H         1 <0>         0.4068
     32 H12         3.4142   -2.6888    0.4369 H         1 <0>         0.4147
@<TRIPOS>BOND
     1    1    6 ar
     2    1    2 ar
     3    1   21 1
     4    2    3 ar
     5    2   22 1
     6    3    4 ar
     7    3   23 1
     8    4    5 ar
     9    4    7 1
    10    5    6 ar
    11    5   24 1
    12    6   25 1
    13    7    8 3
    14    8    9 1
    15    9   14 ar
    16    9   10 ar
    17   10   11 ar
    18   10   26 1
    19   11   12 ar
    20   11   27 1
    21   12   13 ar
    22   12   28 1
    23   13   18 ar
    24   13   14 ar
    25   14   15 ar
    26   15   16 ar
    27   15   20 1
    28   16   17 ar
    29   17   18 ar
    30   17   19 1
    31   19   29 1
    32   19   30 1
    33   20   31 1
    34   20   32 1
@<TRIPOS>MOLECULE
CHEMBL145947
   54    55     0     0     0
SMALL
USER_CHARGES

@<TRIPOS>ATOM
      1 C1         -0.0167    1.3794    0.0096 C.ar      1 <0>        -0.1283
      2 C2          1.1667    2.0884    0.0021 C.ar      1 <0>        -0.0643
      3 C3          2.3848    1.4070   -0.0132 C.ar      1 <0>        -0.1011
      4 C4          2.3966    0.0113   -0.0208 C.ar      1 <0>        -0.0830
      5 C5          1.2061   -0.6856   -0.0132 C.ar      1 <0>        -0.1232
      6 C6          0.0021   -0.0041    0.0020 C.ar      1 <0>        -0.0885
      7 C7         -1.2946   -0.7719    0.0103 C.3       1 <0>        -0.0737
      8 C8         -1.7472   -1.0241   -1.4293 C.3       1 <0>        -0.1190
      9 C9         -3.0637   -1.8037   -1.4209 C.3       1 <0>        -0.1199
     10 C10        -3.5163   -2.0558   -2.8605 C.3       1 <0>        -0.0783
     11 C11        -4.8129   -2.8237   -2.8522 C.ar      1 <0>        -0.2177
     12 C12        -4.8189   -4.2009   -2.9572 C.ar      1 <0>         0.2005
     13 N1         -5.9756   -4.8468   -2.9464 N.ar      1 <0>        -0.5698
     14 C13        -7.1213   -4.1902   -2.8370 C.ar      1 <0>         0.6589
     15 N2         -7.1587   -2.8703   -2.7346 N.ar      1 <0>        -0.5766
     16 C14        -6.0354   -2.1595   -2.7324 C.ar      1 <0>         0.5312
     17 N3         -6.0773   -0.7794   -2.6192 N.pl3     1 <0>        -0.7748
     18 N4         -8.3085   -4.9014   -2.8300 N.pl3     1 <0>        -0.7965
     19 C15         3.6569    2.1603   -0.0218 C.2       1 <0>         0.5461
     20 O1          3.6435    3.3757   -0.0155 O.2       1 <0>        -0.5521
     21 N5          4.8314    1.4994   -0.0366 N.am      1 <0>        -0.6731
     22 C16         6.0919    2.2459   -0.0451 C.3       1 <0>         0.0716
     23 H1          5.9814    3.1523    0.5501 H         1 <0>         0.0792
     24 C17         7.2027    1.3778    0.5494 C.3       1 <0>        -0.0810
     25 C18         6.9032    1.1060    2.0250 C.3       1 <0>        -0.1777
     26 C19         7.9973    0.2510    2.6105 C.2       1 <0>         0.4903
     27 O2          8.9302   -0.1078    1.9123 O.co2     1 <0>        -0.6959
     28 O3          7.9496   -0.0820    3.7824 O.co2     1 <0>        -0.7193
     29 C20         6.4472    2.6155   -1.4622 C.2       1 <0>         0.4961
     30 O4          5.7154    2.2860   -2.3799 O.co2     1 <0>        -0.6995
     31 O5          7.4666    3.2441   -1.6909 O.co2     1 <0>        -0.6960
     32 H2         -0.9598    1.9054    0.0260 H         1 <0>         0.1197
     33 H3          1.1508    3.1682    0.0077 H         1 <0>         0.1347
     34 H4          3.3358   -0.5219   -0.0330 H         1 <0>         0.1303
     35 H5          1.2138   -1.7656   -0.0191 H         1 <0>         0.1220
     36 H6         -1.1489   -1.7256    0.5176 H         1 <0>         0.0708
     37 H7         -2.0557   -0.1941    0.5345 H         1 <0>         0.0689
     38 H8         -1.8929   -0.0704   -1.9367 H         1 <0>         0.0703
     39 H9         -0.9861   -1.6019   -1.9536 H         1 <0>         0.0737
     40 H10        -2.9179   -2.7573   -0.9136 H         1 <0>         0.0715
     41 H11        -3.8248   -1.2258   -0.8967 H         1 <0>         0.0637
     42 H12        -3.6620   -1.1021   -3.3679 H         1 <0>         0.0892
     43 H13        -2.7551   -2.6337   -3.3848 H         1 <0>         0.1017
     44 H14        -3.8906   -4.7454   -3.0476 H         1 <0>         0.2160
     45 H15        -5.2536   -0.2672   -2.6229 H         1 <0>         0.4347
     46 H16        -6.9304   -0.3252   -2.5363 H         1 <0>         0.4272
     47 H17        -8.2950   -5.8685   -2.9046 H         1 <0>         0.4291
     48 H18        -9.1541   -4.4329   -2.7504 H         1 <0>         0.4429
     49 H19         4.8421    0.5294   -0.0416 H         1 <0>         0.3887
     50 H20         7.2537    0.4325    0.0090 H         1 <0>         0.0551
     51 H21         8.1565    1.8981    0.4621 H         1 <0>         0.0809
     52 H22         6.8522    2.0513    2.5654 H         1 <0>         0.0528
     53 H23         5.9494    0.5857    2.1123 H         1 <0>         0.0484
     54 H24        -5.9839   -5.8140   -3.0199 H         1 <0>         0.4432
@<TRIPOS>BOND
     1    1    6 ar
     2    1    2 ar
     3    1   32 1
     4    2    3 ar
     5    2   33 1
     6    3    4 ar
     7    3   19 1
     8    4    5 ar
     9    4   34 1
    10    5    6 ar
    11    5   35 1
    12    6    7 1
    13    7    8 1
    14    7   36 1
    15    7   37 1
    16    8    9 1
    17    8   38 1
    18    8   39 1
    19    9   10 1
    20    9   40 1
    21    9   41 1
    22   10   11 1
    23   10   42 1
    24   10   43 1
    25   11   16 ar
    26   11   12 ar
    27   12   13 ar
    28   12   44 1
    29   13   14 ar
    30   13   54 1
    31   14   15 ar
    32   14   18 1
    33   15   16 ar
    34   16   17 1
    35   17   45 1
    36   17   46 1
    37   18   47 1
    38   18   48 1
    39   19   20 2
    40   19   21 am
    41   21   22 1
    42   21   49 1
    43   22   23 1
    44   22   24 1
    45   22   29 1
    46   24   25 1
    47   24   50 1
    48   24   51 1
    49   25   26 1
    50   25   52 1
    51   25   53 1
    52   26   27 2
    53   26   28 1
    54   29   30 2
    55   29   31 1
@<TRIPOS>MOLECULE
CHEMBL145947__1
   53    54     0     0     0
SMALL
USER_CHARGES

@<TRIPOS>ATOM
      1 C1         -0.0167    1.3794    0.0096 C.ar      1 <0>        -0.1294
      2 C2          1.1667    2.0884    0.0021 C.ar      1 <0>        -0.0646
      3 C3          2.3848    1.4070   -0.0132 C.ar      1 <0>        -0.1091
      4 C4          2.3966    0.0113   -0.0208 C.ar      1 <0>        -0.0831
      5 C5          1.2061   -0.6856   -0.0132 C.ar      1 <0>        -0.1242
      6 C6          0.0021   -0.0041    0.0020 C.ar      1 <0>        -0.0782
      7 C7         -1.2946   -0.7719    0.0103 C.3       1 <0>        -0.0763
      8 C8         -1.7472   -1.0241   -1.4293 C.3       1 <0>        -0.1162
      9 C9         -3.0637   -1.8037   -1.4209 C.3       1 <0>        -0.1148
     10 C10        -3.5163   -2.0558   -2.8605 C.3       1 <0>        -0.0572
     11 C11        -4.8129   -2.8237   -2.8522 C.ar      1 <0>        -0.3015
     12 C12        -4.8189   -4.2009   -2.9572 C.ar      1 <0>         0.2162
     13 N1         -5.9756   -4.8468   -2.9464 N.ar      1 <0>        -0.6073
     14 C13        -7.1213   -4.1903   -2.8365 C.ar      1 <0>         0.5955
     15 N2         -7.1586   -2.8704   -2.7341 N.ar      1 <0>        -0.6300
     16 C14        -6.0354   -2.1595   -2.7324 C.ar      1 <0>         0.4817
     17 N3         -6.0773   -0.7794   -2.6192 N.pl3     1 <0>        -0.8344
     18 N4         -8.3085   -4.9015   -2.8291 N.pl3     1 <0>        -0.8255
     19 C15         3.6569    2.1603   -0.0218 C.2       1 <0>         0.5499
     20 O1          3.6435    3.3757   -0.0155 O.2       1 <0>        -0.5551
     21 N5          4.8314    1.4994   -0.0366 N.am      1 <0>        -0.6756
     22 C16         6.0919    2.2459   -0.0451 C.3       1 <0>         0.0723
     23 H1          5.9814    3.1523    0.5501 H         1 <0>         0.0780
     24 C17         7.2027    1.3778    0.5494 C.3       1 <0>        -0.0804
     25 C18         6.9032    1.1060    2.0250 C.3       1 <0>        -0.1780
     26 C19         7.9973    0.2510    2.6105 C.2       1 <0>         0.4910
     27 O2          8.9302   -0.1078    1.9123 O.co2     1 <0>        -0.6970
     28 O3          7.9496   -0.0820    3.7824 O.co2     1 <0>        -0.7202
     29 C20         6.4472    2.6155   -1.4622 C.2       1 <0>         0.4958
     30 O4          5.7154    2.2860   -2.3799 O.co2     1 <0>        -0.6970
     31 O5          7.4666    3.2441   -1.6909 O.co2     1 <0>        -0.6997
     32 H2         -0.9598    1.9054    0.0260 H         1 <0>         0.1204
     33 H3          1.1508    3.1682    0.0077 H         1 <0>         0.1327
     34 H4          3.3358   -0.5219   -0.0330 H         1 <0>         0.1285
     35 H5          1.2138   -1.7656   -0.0191 H         1 <0>         0.1230
     36 H6         -1.1489   -1.7256    0.5176 H         1 <0>         0.0705
     37 H7         -2.0557   -0.1941    0.5345 H         1 <0>         0.0682
     38 H8         -1.8929   -0.0704   -1.9367 H         1 <0>         0.0648
     39 H9         -0.9861   -1.6019   -1.9536 H         1 <0>         0.0682
     40 H10        -2.9179   -2.7573   -0.9136 H         1 <0>         0.0643
     41 H11        -3.8248   -1.2258   -0.8967 H         1 <0>         0.0583
     42 H12        -3.6620   -1.1021   -3.3679 H         1 <0>         0.0650
     43 H13        -2.7551   -2.6337   -3.3848 H         1 <0>         0.0770
     44 H14        -3.8906   -4.7454   -3.0476 H         1 <0>         0.1650
     45 H15        -5.2536   -0.2672   -2.6229 H         1 <0>         0.4144
     46 H16        -6.9304   -0.3252   -2.5363 H         1 <0>         0.4045
     47 H17        -8.2950   -5.8685   -2.9038 H         1 <0>         0.4133
     48 H18        -9.1540   -4.4329   -2.7492 H         1 <0>         0.4107
     49 H19         4.8421    0.5294   -0.0416 H         1 <0>         0.3892
     50 H20         7.2537    0.4325    0.0090 H         1 <0>         0.0551
     51 H21         8.1565    1.8981    0.4621 H         1 <0>         0.0794
     52 H22         6.8522    2.0513    2.5654 H         1 <0>         0.0522
     53 H23         5.9494    0.5857    2.1123 H         1 <0>         0.0500
@<TRIPOS>BOND
     1    1    6 ar
     2    1    2 ar
     3    1   32 1
     4    2    3 ar
     5    2   33 1
     6    3    4 ar
     7    3   19 1
     8    4    5 ar
     9    4   34 1
    10    5    6 ar
    11    5   35 1
    12    6    7 1
    13    7    8 1
    14    7   36 1
    15    7   37 1
    16    8    9 1
    17    8   38 1
    18    8   39 1
    19    9   10 1
    20    9   40 1
    21    9   41 1
    22   10   11 1
    23   10   42 1
    24   10   43 1
    25   11   16 ar
    26   11   12 ar
    27   12   13 ar
    28   12   44 1
    29   13   14 ar
    30   14   15 ar
    31   14   18 1
    32   15   16 ar
    33   16   17 1
    34   17   45 1
    35   17   46 1
    36   18   47 1
    37   18   48 1
    38   19   20 2
    39   19   21 am
    40   21   22 1
    41   21   49 1
    42   22   23 1
    43   22   24 1
    44   22   29 1
    45   24   25 1
    46   24   50 1
    47   24   51 1
    48   25   26 1
    49   25   52 1
    50   25   53 1
    51   26   27 2
    52   26   28 1
    53   29   30 2
    54   29   31 1
@<TRIPOS>MOLECULE
CHEMBL7586
   35    37     0     0     0
SMALL
USER_CHARGES

@<TRIPOS>ATOM
      1 C1         -0.0167    1.3781    0.0096 C.2       1 <0>        -0.1616
      2 C2          1.1597    2.0514    0.0020 C.2       1 <0>        -0.1613
      3 S1          2.3478    0.7191   -0.0165 S.3       1 <0>         0.0435
      4 C3          1.1962   -0.6452   -0.0128 C.2       1 <0>        -0.1886
      5 C4          0.0021   -0.0041    0.0020 C.2       1 <0>        -0.1195
      6 C5         -1.2859   -0.7864    0.0106 C.3       1 <0>        -0.0609
      7 C6         -1.7361   -1.0435   -1.4289 C.3       1 <0>        -0.0826
      8 C7         -3.0955   -1.7524   -1.4249 C.3       1 <0>        -0.1162
      9 C8         -3.6282   -1.7867   -2.8565 C.3       1 <0>        -0.1011
     10 C9         -2.5855   -2.3342   -3.7932 C.ar      1 <0>         0.2384
     11 C10        -1.2543   -2.3996   -3.4618 C.ar      1 <0>        -0.2186
     12 C11        -0.3553   -2.9181   -4.4024 C.ar      1 <0>         0.5306
     13 N1         -0.8135   -3.3329   -5.5776 N.ar      1 <0>        -0.5773
     14 C12        -2.1057   -3.2575   -5.8581 C.ar      1 <0>         0.6654
     15 N2         -2.9753   -2.7696   -4.9888 N.ar      1 <0>        -0.5759
     16 N3         -2.5567   -3.6990   -7.0898 N.pl3     1 <0>        -0.7931
     17 N4          0.9965   -2.9968   -4.1101 N.pl3     1 <0>        -0.7778
     18 C13        -0.7220   -1.9458   -2.1309 C.3       1 <0>        -0.0722
     19 H1         -0.9545    1.9134    0.0259 H         1 <0>         0.1347
     20 H2          1.3332    3.1174    0.0058 H         1 <0>         0.1875
     21 H3          1.3986   -1.7060   -0.0210 H         1 <0>         0.1829
     22 H4         -1.1294   -1.7384    0.5178 H         1 <0>         0.0795
     23 H5         -2.0533   -0.2172    0.5351 H         1 <0>         0.0833
     24 H6         -1.8150   -0.0964   -1.9627 H         1 <0>         0.0863
     25 H7         -2.9765   -2.7704   -1.0538 H         1 <0>         0.0827
     26 H8         -3.7915   -1.2064   -0.7880 H         1 <0>         0.0982
     27 H9         -4.5154   -2.4188   -2.8958 H         1 <0>         0.1108
     28 H10        -3.8956   -0.7763   -3.1658 H         1 <0>         0.1193
     29 H11        -1.9287   -4.0585   -7.7358 H         1 <0>         0.4447
     30 H12        -3.5007   -3.6490   -7.3070 H         1 <0>         0.4300
     31 H13         1.3253   -2.6919   -3.2500 H         1 <0>         0.4313
     32 H14         1.6143   -3.3569   -4.7656 H         1 <0>         0.4284
     33 H15         0.2060   -1.3947   -2.2829 H         1 <0>         0.0921
     34 H16        -0.5221   -2.8168   -1.5068 H         1 <0>         0.0968
     35 H17        -3.9147   -2.7284   -5.2272 H         1 <0>         0.4402
@<TRIPOS>BOND
     1    1    5 1
     2    1    2 2
     3    1   19 1
     4    2    3 1
     5    2   20 1
     6    3    4 1
     7    4    5 2
     8    4   21 1
     9    5    6 1
    10    6    7 1
    11    6   22 1
    12    6   23 1
    13    7   18 1
    14    7    8 1
    15    7   24 1
    16    8    9 1
    17    8   25 1
    18    8   26 1
    19    9   10 1
    20    9   27 1
    21    9   28 1
    22   10   15 ar
    23   10   11 ar
    24   11   12 ar
    25   11   18 1
    26   12   13 ar
    27   12   17 1
    28   13   14 ar
    29   14   15 ar
    30   14   16 1
    31   15   35 1
    32   16   29 1
    33   16   30 1
    34   17   31 1
    35   17   32 1
    36   18   33 1
    37   18   34 1
@<TRIPOS>MOLECULE
CHEMBL7586__1
   35    37     0     0     0
SMALL
USER_CHARGES

@<TRIPOS>ATOM
      1 C1         -0.0167    1.3781    0.0096 C.2       1 <0>        -0.1641
      2 C2          1.1597    2.0514    0.0020 C.2       1 <0>        -0.1699
      3 S1          2.3478    0.7191   -0.0165 S.3       1 <0>         0.0490
      4 C3          1.1962   -0.6452   -0.0128 C.2       1 <0>        -0.1711
      5 C4          0.0021   -0.0041    0.0020 C.2       1 <0>        -0.1298
      6 C5         -1.2859   -0.7864    0.0106 C.3       1 <0>        -0.0596
      7 C6         -1.7361   -1.0435   -1.4289 C.3       1 <0>        -0.0826
      8 C7         -2.9919   -1.9229   -1.4268 C.3       1 <0>        -0.1166
      9 C8         -3.2825   -2.3560   -2.8630 C.3       1 <0>        -0.1010
     10 C9         -3.2969   -1.1629   -3.7799 C.ar      1 <0>         0.2382
     11 C10        -2.7378    0.0429   -3.4340 C.ar      1 <0>        -0.2188
     12 C11        -2.7928    1.0953   -4.3567 C.ar      1 <0>         0.5305
     13 N1         -3.3840    0.8995   -5.5294 N.ar      1 <0>        -0.5774
     14 C12        -3.9158   -0.2771   -5.8242 C.ar      1 <0>         0.6653
     15 N2         -3.8751   -1.2882   -4.9719 N.ar      1 <0>        -0.5760
     16 N3         -4.5288   -0.4530   -7.0524 N.pl3     1 <0>        -0.7931
     17 N4         -2.2372    2.3264   -4.0491 N.pl3     1 <0>        -0.7778
     18 C13        -2.0762    0.2839   -2.1055 C.3       1 <0>        -0.0710
     19 H1         -0.9545    1.9134    0.0259 H         1 <0>         0.1320
     20 H2          1.3332    3.1174    0.0058 H         1 <0>         0.1866
     21 H3          1.3986   -1.7060   -0.0210 H         1 <0>         0.1852
     22 H4         -1.1294   -1.7384    0.5178 H         1 <0>         0.0833
     23 H5         -2.0533   -0.2172    0.5351 H         1 <0>         0.0785
     24 H6         -0.9375   -1.5411   -1.9791 H         1 <0>         0.0862
     25 H7         -2.8219   -2.8027   -0.8062 H         1 <0>         0.0983
     26 H8         -3.8366   -1.3543   -1.0377 H         1 <0>         0.0824
     27 H9         -2.5123   -3.0537   -3.1918 H         1 <0>         0.1194
     28 H10        -4.2528   -2.8511   -2.9008 H         1 <0>         0.1107
     29 H11        -4.5653    0.2808   -7.6858 H         1 <0>         0.4446
     30 H12        -4.9219   -1.3101   -7.2800 H         1 <0>         0.4300
     31 H13        -1.8069    2.4635   -3.1906 H         1 <0>         0.4315
     32 H14        -2.2784    3.0514   -4.6922 H         1 <0>         0.4282
     33 H15        -2.7506    0.8524   -1.4650 H         1 <0>         0.0963
     34 H16        -1.1609    0.8559   -2.2573 H         1 <0>         0.0922
     35 H17        -4.2741   -2.1366   -5.2205 H         1 <0>         0.4402
@<TRIPOS>BOND
     1    1    5 1
     2    1    2 2
     3    1   19 1
     4    2    3 1
     5    2   20 1
     6    3    4 1
     7    4    5 2
     8    4   21 1
     9    5    6 1
    10    6    7 1
    11    6   22 1
    12    6   23 1
    13    7   18 1
    14    7    8 1
    15    7   24 1
    16    8    9 1
    17    8   25 1
    18    8   26 1
    19    9   10 1
    20    9   27 1
    21    9   28 1
    22   10   15 ar
    23   10   11 ar
    24   11   12 ar
    25   11   18 1
    26   12   13 ar
    27   12   17 1
    28   13   14 ar
    29   14   15 ar
    30   14   16 1
    31   15   35 1
    32   16   29 1
    33   16   30 1
    34   17   31 1
    35   17   32 1
    36   18   33 1
    37   18   34 1
@<TRIPOS>MOLECULE
CHEMBL300886
   34    36     0     0     0
SMALL
USER_CHARGES

@<TRIPOS>ATOM
      1 C1         -0.0167    1.3788    0.0096 C.ar      1 <0>        -0.1151
      2 C2          1.1695    2.0899    0.0021 C.ar      1 <0>        -0.0972
      3 C3          2.3774    1.4209   -0.0134 C.ar      1 <0>        -0.0955
      4 C4          2.4001    0.0314   -0.0211 C.ar      1 <0>        -0.0924
      5 C5          1.2062   -0.6798   -0.0130 C.ar      1 <0>        -0.1326
      6 C6          0.0021   -0.0041    0.0020 C.ar      1 <0>        -0.0987
      7 S1          3.9390   -0.8266   -0.0415 S.3       1 <0>        -0.0870
      8 C7          3.4652   -2.5776   -0.0459 C.3       1 <0>        -0.0784
      9 C8          4.7054   -3.4335   -0.0632 C.ar      1 <0>         0.1660
     10 C9          5.2551   -3.8081   -1.2874 C.ar      1 <0>        -0.0647
     11 C10         6.3800   -4.5838   -1.3227 C.ar      1 <0>        -0.0884
     12 C11         6.9480   -4.9802   -0.0999 C.ar      1 <0>         0.1492
     13 C12         6.3351   -4.5620    1.1053 C.ar      1 <0>         0.0268
     14 N1          5.2437   -3.8031    1.0754 N.ar      1 <0>        -0.4037
     15 C13         6.9493   -4.9903    2.3630 C.ar      1 <0>         0.5744
     16 N2          8.0390   -5.7416    2.2929 N.ar      1 <0>        -0.5875
     17 C14         8.5608   -6.0972    1.1231 C.ar      1 <0>         0.6975
     18 N3          8.0490   -5.7393   -0.0374 N.ar      1 <0>        -0.5814
     19 N4          9.6998   -6.8822    1.1239 N.pl3     1 <0>        -0.7837
     20 N5          6.4129   -4.6243    3.5792 N.pl3     1 <0>        -0.7368
     21 H1         -0.9599    1.9047    0.0260 H         1 <0>         0.1302
     22 H2          1.1511    3.1697    0.0081 H         1 <0>         0.1329
     23 H3          3.3033    1.9769   -0.0200 H         1 <0>         0.1292
     24 H4          1.2201   -1.7597   -0.0189 H         1 <0>         0.1217
     25 H5         -0.9262   -0.5561    0.0079 H         1 <0>         0.1296
     26 H6          2.8835   -2.7989    0.8489 H         1 <0>         0.1192
     27 H7          2.8651   -2.7894   -0.9309 H         1 <0>         0.1202
     28 H8          4.7922   -3.4858   -2.2084 H         1 <0>         0.1740
     29 H9          6.8192   -4.8836   -2.2627 H         1 <0>         0.1750
     30 H10        10.0973   -7.1591    1.9643 H         1 <0>         0.4465
     31 H11         5.6150   -4.0737    3.6114 H         1 <0>         0.4431
     32 H12         6.8334   -4.9175    4.4027 H         1 <0>         0.4347
     33 H13        10.1010   -7.1557    0.2842 H         1 <0>         0.4321
     34 H14         8.4759   -6.0307   -0.8583 H         1 <0>         0.4407
@<TRIPOS>BOND
     1    1    6 ar
     2    1    2 ar
     3    1   21 1
     4    2    3 ar
     5    2   22 1
     6    3    4 ar
     7    3   23 1
     8    4    5 ar
     9    4    7 1
    10    5    6 ar
    11    5   24 1
    12    6   25 1
    13    7    8 1
    14    8    9 1
    15    8   26 1
    16    8   27 1
    17    9   14 ar
    18    9   10 ar
    19   10   11 ar
    20   10   28 1
    21   11   12 ar
    22   11   29 1
    23   12   18 ar
    24   12   13 ar
    25   13   14 ar
    26   13   15 ar
    27   15   16 ar
    28   15   20 1
    29   16   17 ar
    30   17   18 ar
    31   17   19 1
    32   18   34 1
    33   19   30 1
    34   19   33 1
    35   20   31 1
    36   20   32 1
@<TRIPOS>MOLECULE
CHEMBL45572
   76    81     0     0     0
SMALL
USER_CHARGES

@<TRIPOS>ATOM
      1 C1         -0.0169    1.3937    0.0097 C.ar      1 <0>        -0.0140
      2 C2          1.1662    2.0965    0.0022 C.ar      1 <0>        -0.2022
      3 C3          2.3811    1.4169   -0.0131 C.ar      1 <0>         0.2313
      4 C4          2.4034    0.0249   -0.0208 C.ar      1 <0>        -0.2049
      5 C5          1.2237   -0.6836   -0.0138 C.ar      1 <0>        -0.0367
      6 C6          0.0021   -0.0041    0.0020 C.ar      1 <0>        -0.1730
      7 C7         -1.2644   -0.7605    0.0105 C.2       1 <0>         0.5592
      8 O1         -2.3263   -0.1682    0.0243 O.2       1 <0>        -0.5518
      9 N1         -1.2445   -2.1081    0.0031 N.am      1 <0>        -0.6914
     10 C8         -2.5022   -2.8593    0.0116 C.3       1 <0>         0.0757
     11 C9         -2.2637   -4.2464    0.6114 C.3       1 <0>        -0.0899
     12 C10        -1.8670   -4.1047    2.0823 C.3       1 <0>        -0.1395
     13 C11        -1.6321   -5.4710    2.6731 C.2       1 <0>         0.5158
     14 O2         -1.7686   -6.4607    1.9855 O.2       1 <0>        -0.5281
     15 N2         -1.2704   -5.5931    3.9657 N.am      1 <0>        -0.7330
     16 C12        -1.0421   -6.9214    4.5401 C.3       1 <0>         0.1844
     17 C13        -2.3242   -7.7497    4.4352 C.3       1 <0>        -0.1239
     18 C14        -2.0857   -9.1368    5.0350 C.3       1 <0>        -0.0825
     19 C15        -1.6890   -8.9951    6.5059 C.3       1 <0>        -0.1099
     20 C16        -0.4069   -8.1668    6.6108 C.3       1 <0>        -0.0800
     21 C17        -0.6453   -6.7796    6.0109 C.3       1 <0>        -0.1143
     22 C18         0.7170   -8.8674    5.8446 C.3       1 <0>        -0.1096
     23 C19         0.3203   -9.0091    4.3738 C.3       1 <0>        -0.0823
     24 C20        -0.9618   -9.8374    4.2689 C.3       1 <0>        -0.1089
     25 C21         0.0818   -7.6220    3.7739 C.3       1 <0>        -0.1228
     26 C22        -3.0110   -3.0030   -1.3996 C.2       1 <0>         0.4921
     27 O3         -2.3006   -2.6873   -2.3389 O.co2     1 <0>        -0.6864
     28 O4         -4.1331   -3.4348   -1.6021 O.co2     1 <0>        -0.6969
     29 N3          3.5749    2.1299   -0.0211 N.pl3     1 <0>        -0.7396
     30 C23         4.8542    1.4162   -0.0371 C.3       1 <0>         0.1871
     31 C24         5.9850    2.4124   -0.0431 C.ar      1 <0>         0.0247
     32 C25         6.5885    2.7791    1.1594 C.ar      1 <0>         0.1575
     33 N4          7.5780    3.6467    1.1795 N.ar      1 <0>        -0.4418
     34 C26         8.0084    4.1816    0.0342 C.ar      1 <0>         0.3780
     35 C27         7.3916    3.8053   -1.1850 C.ar      1 <0>        -0.0922
     36 N5          6.3970    2.9236   -1.1837 N.ar      1 <0>        -0.3615
     37 C28         7.8914    4.4127   -2.4198 C.ar      1 <0>         0.5467
     38 N6          8.8911    5.2778   -2.3202 N.ar      1 <0>        -0.6297
     39 C29         9.4230    5.5849   -1.1413 C.ar      1 <0>         0.6421
     40 N7          9.0113    5.0678   -0.0009 N.ar      1 <0>        -0.6032
     41 N8         10.4628    6.4946   -1.1097 N.pl3     1 <0>        -0.8066
     42 N9          7.3422    4.0958   -3.6429 N.pl3     1 <0>        -0.7887
     43 H1         -0.9590    1.9215    0.0260 H         1 <0>         0.1337
     44 H2          1.1522    3.1764    0.0078 H         1 <0>         0.1218
     45 H3          3.3474   -0.4995   -0.0326 H         1 <0>         0.1240
     46 H4          1.2416   -1.7634   -0.0204 H         1 <0>         0.1245
     47 H5         -0.3974   -2.5806   -0.0078 H         1 <0>         0.3879
     48 H6         -3.2399   -2.3261    0.6112 H         1 <0>         0.0835
     49 H7         -3.1771   -4.8365    0.5367 H         1 <0>         0.0874
     50 H8         -1.4631   -4.7456    0.0656 H         1 <0>         0.0681
     51 H9         -0.9536   -3.5146    2.1570 H         1 <0>         0.0886
     52 H10        -2.6677   -3.6056    2.6281 H         1 <0>         0.0913
     53 H11        -1.1613   -4.8016    4.5157 H         1 <0>         0.3972
     54 H12        -3.1248   -7.2506    4.9810 H         1 <0>         0.0585
     55 H13        -2.6068   -7.8507    3.3873 H         1 <0>         0.0881
     56 H14        -2.9991   -9.7269    4.9603 H         1 <0>         0.0705
     57 H15        -2.4896   -8.4960    7.0517 H         1 <0>         0.0612
     58 H16        -1.5191   -9.9833    6.9332 H         1 <0>         0.0619
     59 H17        -0.1242   -8.0658    7.6586 H         1 <0>         0.0717
     60 H18         0.2681   -6.1895    6.0856 H         1 <0>         0.0669
     61 H19        -1.4460   -6.2805    6.5567 H         1 <0>         0.0670
     62 H20         1.6304   -8.2773    5.9194 H         1 <0>         0.0610
     63 H21         0.8869   -9.8556    6.2720 H         1 <0>         0.0619
     64 H22         1.1210   -9.5082    3.8280 H         1 <0>         0.0701
     65 H23        -0.7919  -10.8257    4.6962 H         1 <0>         0.0597
     66 H24        -1.2444   -9.9384    3.2210 H         1 <0>         0.0659
     67 H25        -0.2008   -7.7229    2.7261 H         1 <0>         0.0877
     68 H26         0.9952   -7.0319    3.8487 H         1 <0>         0.0580
     69 H27         3.5606    3.0997   -0.0161 H         1 <0>         0.3995
     70 H28         4.9299    0.7860    0.8490 H         1 <0>         0.0851
     71 H29         4.9126    0.7950   -0.9309 H         1 <0>         0.0832
     72 H30         6.2395    2.3463    2.0853 H         1 <0>         0.1832
     73 H31        10.7858    6.8907   -1.9341 H         1 <0>         0.4171
     74 H32        10.8696    6.7369   -0.2632 H         1 <0>         0.4197
     75 H33         6.6114    3.4603   -3.6964 H         1 <0>         0.4279
     76 H34         7.6864    4.5083   -4.4505 H         1 <0>         0.4168
@<TRIPOS>BOND
     1    1    6 ar
     2    1    2 ar
     3    1   43 1
     4    2    3 ar
     5    2   44 1
     6    3    4 ar
     7    3   29 1
     8    4    5 ar
     9    4   45 1
    10    5    6 ar
    11    5   46 1
    12    6    7 1
    13    7    8 2
    14    7    9 am
    15    9   10 1
    16    9   47 1
    17   10   11 1
    18   10   26 1
    19   10   48 1
    20   11   12 1
    21   11   49 1
    22   11   50 1
    23   12   13 1
    24   12   51 1
    25   12   52 1
    26   13   14 2
    27   13   15 am
    28   15   16 1
    29   15   53 1
    30   16   21 1
    31   16   25 1
    32   16   17 1
    33   17   18 1
    34   17   54 1
    35   17   55 1
    36   18   24 1
    37   18   19 1
    38   18   56 1
    39   19   20 1
    40   19   57 1
    41   19   58 1
    42   20   21 1
    43   20   22 1
    44   20   59 1
    45   21   60 1
    46   21   61 1
    47   22   23 1
    48   22   62 1
    49   22   63 1
    50   23   24 1
    51   23   25 1
    52   23   64 1
    53   24   65 1
    54   24   66 1
    55   25   67 1
    56   25   68 1
    57   26   27 2
    58   26   28 1
    59   29   30 1
    60   29   69 1
    61   30   31 1
    62   30   70 1
    63   30   71 1
    64   31   36 ar
    65   31   32 ar
    66   32   33 ar
    67   32   72 1
    68   33   34 ar
    69   34   40 ar
    70   34   35 ar
    71   35   36 ar
    72   35   37 ar
    73   37   38 ar
    74   37   42 1
    75   38   39 ar
    76   39   40 ar
    77   39   41 1
    78   41   73 1
    79   41   74 1
    80   42   75 1
    81   42   76 1
@<TRIPOS>MOLECULE
CHEMBL45572__1
   76    81     0     0     0
SMALL
USER_CHARGES

@<TRIPOS>ATOM
      1 C1         -0.0169    1.3937    0.0097 C.ar      1 <0>        -0.0138
      2 C2          1.1662    2.0965    0.0022 C.ar      1 <0>        -0.2023
      3 C3          2.3811    1.4169   -0.0131 C.ar      1 <0>         0.2320
      4 C4          2.4034    0.0249   -0.0208 C.ar      1 <0>        -0.2048
      5 C5          1.2237   -0.6836   -0.0138 C.ar      1 <0>        -0.0362
      6 C6          0.0021   -0.0041    0.0020 C.ar      1 <0>        -0.1748
      7 C7         -1.2644   -0.7605    0.0105 C.2       1 <0>         0.5546
      8 O1         -2.3263   -0.1682    0.0243 O.2       1 <0>        -0.5496
      9 N1         -1.2445   -2.1081    0.0031 N.am      1 <0>        -0.6921
     10 C8         -2.5022   -2.8593    0.0116 C.3       1 <0>         0.0766
     11 C9         -2.2758   -4.2399   -0.6078 C.3       1 <0>        -0.0912
     12 C10        -1.9084   -4.0824   -2.0846 C.3       1 <0>        -0.1392
     13 C11        -1.6854   -5.4422   -2.6946 C.2       1 <0>         0.5159
     14 O2         -1.8083   -6.4392   -2.0151 O.2       1 <0>        -0.5281
     15 N2         -1.3495   -5.5504   -3.9953 N.am      1 <0>        -0.7329
     16 C12        -1.1327   -6.8724   -4.5883 C.3       1 <0>         0.1844
     17 C13         0.0061   -7.5810   -3.8523 C.3       1 <0>        -0.1228
     18 C14         0.2325   -8.9617   -4.4716 C.3       1 <0>        -0.0824
     19 C15         0.5999   -8.8041   -5.9484 C.3       1 <0>        -0.1096
     20 C16        -0.5389   -8.0955   -6.6845 C.3       1 <0>        -0.0800
     21 C17        -0.7653   -6.7148   -6.0652 C.3       1 <0>        -0.1142
     22 C18        -1.8188   -8.9250   -6.5631 C.3       1 <0>        -0.1098
     23 C19        -2.1862   -9.0825   -5.0862 C.3       1 <0>        -0.0825
     24 C20        -1.0474   -9.7912   -4.3501 C.3       1 <0>        -0.1089
     25 C21        -2.4126   -7.7019   -4.4669 C.3       1 <0>        -0.1239
     26 C22        -2.9829   -3.0182    1.4310 C.2       1 <0>         0.4932
     27 O3         -4.1770   -3.0939    1.6654 O.co2     1 <0>        -0.6944
     28 O4         -2.1777   -3.0709    2.3450 O.co2     1 <0>        -0.6895
     29 N3          3.5749    2.1299   -0.0211 N.pl3     1 <0>        -0.7394
     30 C23         4.8542    1.4162   -0.0371 C.3       1 <0>         0.1871
     31 C24         5.9850    2.4124   -0.0431 C.ar      1 <0>         0.0252
     32 C25         6.5885    2.7791    1.1594 C.ar      1 <0>         0.1583
     33 N4          7.5780    3.6467    1.1795 N.ar      1 <0>        -0.4411
     34 C26         8.0084    4.1816    0.0342 C.ar      1 <0>         0.3779
     35 C27         7.3916    3.8053   -1.1850 C.ar      1 <0>        -0.0928
     36 N5          6.3970    2.9236   -1.1837 N.ar      1 <0>        -0.3625
     37 C28         7.8914    4.4127   -2.4198 C.ar      1 <0>         0.5464
     38 N6          8.8911    5.2778   -2.3202 N.ar      1 <0>        -0.6293
     39 C29         9.4230    5.5849   -1.1413 C.ar      1 <0>         0.6418
     40 N7          9.0113    5.0678   -0.0009 N.ar      1 <0>        -0.6024
     41 N8         10.4628    6.4946   -1.1097 N.pl3     1 <0>        -0.8066
     42 N9          7.3422    4.0958   -3.6429 N.pl3     1 <0>        -0.7898
     43 H1         -0.9590    1.9215    0.0260 H         1 <0>         0.1340
     44 H2          1.1522    3.1764    0.0078 H         1 <0>         0.1220
     45 H3          3.3474   -0.4995   -0.0326 H         1 <0>         0.1244
     46 H4          1.2416   -1.7634   -0.0204 H         1 <0>         0.1251
     47 H5         -0.3974   -2.5806   -0.0078 H         1 <0>         0.3893
     48 H6         -3.2516   -2.3197   -0.5676 H         1 <0>         0.0831
     49 H7         -1.4645   -4.7448   -0.0833 H         1 <0>         0.0719
     50 H8         -3.1876   -4.8309   -0.5212 H         1 <0>         0.0831
     51 H9         -2.7197   -3.5775   -2.6090 H         1 <0>         0.0914
     52 H10        -0.9966   -3.4914   -2.1711 H         1 <0>         0.0889
     53 H11        -1.2512   -4.7530   -4.5388 H         1 <0>         0.3972
     54 H12         0.9179   -6.9901   -3.9388 H         1 <0>         0.0580
     55 H13        -0.2557   -7.6933   -2.8001 H         1 <0>         0.0879
     56 H14         1.0438   -9.4665   -3.9472 H         1 <0>         0.0703
     57 H15         1.5117   -8.2131   -6.0349 H         1 <0>         0.0609
     58 H16         0.7612   -9.7877   -6.3896 H         1 <0>         0.0619
     59 H17        -0.2771   -7.9832   -7.7366 H         1 <0>         0.0716
     60 H18        -1.5766   -6.2100   -6.5896 H         1 <0>         0.0670
     61 H19         0.1465   -6.1239   -6.1517 H         1 <0>         0.0667
     62 H20        -2.6301   -8.4201   -7.0875 H         1 <0>         0.0612
     63 H21        -1.6575   -9.9085   -7.0043 H         1 <0>         0.0620
     64 H22        -3.0980   -9.6735   -4.9997 H         1 <0>         0.0705
     65 H23        -0.8861  -10.7747   -4.7914 H         1 <0>         0.0597
     66 H24        -1.3091   -9.9034   -3.2980 H         1 <0>         0.0660
     67 H25        -2.6743   -7.8142   -3.4148 H         1 <0>         0.0881
     68 H26        -3.2239   -7.1971   -4.9913 H         1 <0>         0.0585
     69 H27         3.5606    3.0997   -0.0161 H         1 <0>         0.3997
     70 H28         4.9299    0.7860    0.8490 H         1 <0>         0.0861
     71 H29         4.9126    0.7950   -0.9309 H         1 <0>         0.0826
     72 H30         6.2395    2.3463    2.0853 H         1 <0>         0.1842
     73 H31        10.7858    6.8907   -1.9341 H         1 <0>         0.4170
     74 H32        10.8696    6.7369   -0.2632 H         1 <0>         0.4199
     75 H33         6.6114    3.4603   -3.6964 H         1 <0>         0.4272
     76 H34         7.6864    4.5083   -4.4505 H         1 <0>         0.4164
@<TRIPOS>BOND
     1    1    6 ar
     2    1    2 ar
     3    1   43 1
     4    2    3 ar
     5    2   44 1
     6    3    4 ar
     7    3   29 1
     8    4    5 ar
     9    4   45 1
    10    5    6 ar
    11    5   46 1
    12    6    7 1
    13    7    8 2
    14    7    9 am
    15    9   10 1
    16    9   47 1
    17   10   11 1
    18   10   26 1
    19   10   48 1
    20   11   12 1
    21   11   49 1
    22   11   50 1
    23   12   13 1
    24   12   51 1
    25   12   52 1
    26   13   14 2
    27   13   15 am
    28   15   16 1
    29   15   53 1
    30   16   21 1
    31   16   25 1
    32   16   17 1
    33   17   18 1
    34   17   54 1
    35   17   55 1
    36   18   24 1
    37   18   19 1
    38   18   56 1
    39   19   20 1
    40   19   57 1
    41   19   58 1
    42   20   21 1
    43   20   22 1
    44   20   59 1
    45   21   60 1
    46   21   61 1
    47   22   23 1
    48   22   62 1
    49   22   63 1
    50   23   24 1
    51   23   25 1
    52   23   64 1
    53   24   65 1
    54   24   66 1
    55   25   67 1
    56   25   68 1
    57   26   27 2
    58   26   28 1
    59   29   30 1
    60   29   69 1
    61   30   31 1
    62   30   70 1
    63   30   71 1
    64   31   36 ar
    65   31   32 ar
    66   32   33 ar
    67   32   72 1
    68   33   34 ar
    69   34   40 ar
    70   34   35 ar
    71   35   36 ar
    72   35   37 ar
    73   37   38 ar
    74   37   42 1
    75   38   39 ar
    76   39   40 ar
    77   39   41 1
    78   41   73 1
    79   41   74 1
    80   42   75 1
    81   42   76 1
@<TRIPOS>MOLECULE
CHEMBL38158
   49    51     0     0     0
SMALL
USER_CHARGES

@<TRIPOS>ATOM
      1 C1         -0.0173    1.4248    0.0099 C.3       1 <0>         0.0274
      2 O1          0.0021   -0.0041    0.0020 O.3       1 <0>        -0.3140
      3 C2         -1.2003   -0.6375    0.0101 C.ar      1 <0>         0.1258
      4 C3         -2.3748    0.1012    0.0195 C.ar      1 <0>        -0.2014
      5 C4         -3.5956   -0.5449    0.0272 C.ar      1 <0>        -0.0805
      6 C5         -3.6478   -1.9268    0.0256 C.ar      1 <0>        -0.1045
      7 C6         -2.4790   -2.6650    0.0167 C.ar      1 <0>        -0.0785
      8 C7         -1.2554   -2.0235    0.0032 C.ar      1 <0>        -0.1071
      9 C8          0.0182   -2.8288   -0.0128 C.3       1 <0>        -0.0055
     10 C9          0.5220   -3.0002    1.3971 C.ar      1 <0>        -0.2996
     11 C10         1.4629   -2.1353    1.9210 C.ar      1 <0>         0.2263
     12 N1          1.8852   -2.3126    3.1642 N.ar      1 <0>        -0.6094
     13 C11         1.4177   -3.3050    3.9073 C.ar      1 <0>         0.5977
     14 N2          0.5156   -4.1558    3.4423 N.ar      1 <0>        -0.6285
     15 C12         0.0437   -4.0334    2.2056 C.ar      1 <0>         0.4862
     16 N3         -0.9042   -4.9214    1.7239 N.pl3     1 <0>        -0.8339
     17 N4          1.8841   -3.4565    5.2015 N.pl3     1 <0>        -0.8248
     18 C13        -4.9811   -2.6292    0.0340 C.3       1 <0>        -0.0728
     19 C14        -5.4425   -2.8648   -1.4056 C.3       1 <0>        -0.0649
     20 C15        -6.7758   -3.5671   -1.3972 C.ar      1 <0>        -0.0991
     21 C16        -6.8256   -4.9501   -1.3931 C.ar      1 <0>        -0.1355
     22 C17        -8.0422   -5.5997   -1.3858 C.ar      1 <0>        -0.0846
     23 C18        -9.2262   -4.8580   -1.3821 C.ar      1 <0>        -0.1356
     24 C19        -9.1683   -3.4620   -1.3858 C.ar      1 <0>        -0.0845
     25 C20        -7.9445   -2.8260   -1.3878 C.ar      1 <0>        -0.1356
     26 C21       -10.5316   -5.5456   -1.3748 C.2       1 <0>         0.5183
     27 O2        -10.5789   -6.7676   -1.3720 O.co2     1 <0>        -0.6884
     28 O3        -11.5662   -4.8936   -1.3716 O.co2     1 <0>        -0.6884
     29 H1          1.0053    1.8021    0.0021 H         1 <0>         0.0990
     30 H2         -0.5445    1.7859   -0.8732 H         1 <0>         0.0542
     31 H3         -0.5275    1.7763    0.9067 H         1 <0>         0.0533
     32 H4         -2.3345    1.1804    0.0211 H         1 <0>         0.1260
     33 H5         -4.5101    0.0296    0.0349 H         1 <0>         0.1243
     34 H6         -2.5225   -3.7442    0.0158 H         1 <0>         0.1217
     35 H7         -0.1764   -3.8079   -0.4506 H         1 <0>         0.0716
     36 H8          0.7698   -2.3083   -0.6064 H         1 <0>         0.0872
     37 H9          1.8506   -1.3234    1.3235 H         1 <0>         0.1647
     38 H10        -1.2406   -4.8280    0.8190 H         1 <0>         0.4100
     39 H11        -1.2315   -5.6366    2.2917 H         1 <0>         0.4064
     40 H12         2.5451   -2.8403    5.5540 H         1 <0>         0.4131
     41 H13         1.5500   -4.1789    5.7559 H         1 <0>         0.4115
     42 H14        -4.8842   -3.5867    0.5458 H         1 <0>         0.0726
     43 H15        -5.7137   -2.0118    0.5539 H         1 <0>         0.0730
     44 H16        -5.5395   -1.9073   -1.9174 H         1 <0>         0.0673
     45 H17        -4.7100   -3.4821   -1.9255 H         1 <0>         0.0677
     46 H18        -5.9095   -5.5221   -1.3960 H         1 <0>         0.1114
     47 H19        -8.0795   -6.6790   -1.3834 H         1 <0>         0.1244
     48 H20       -10.0796   -2.8824   -1.3829 H         1 <0>         0.1243
     49 H21        -7.8981   -1.7470   -1.3862 H         1 <0>         0.1114
@<TRIPOS>BOND
     1    1    2 1
     2    1   29 1
     3    1   30 1
     4    1   31 1
     5    2    3 1
     6    3    8 ar
     7    3    4 ar
     8    4    5 ar
     9    4   32 1
    10    5    6 ar
    11    5   33 1
    12    6    7 ar
    13    6   18 1
    14    7    8 ar
    15    7   34 1
    16    8    9 1
    17    9   10 1
    18    9   35 1
    19    9   36 1
    20   10   15 ar
    21   10   11 ar
    22   11   12 ar
    23   11   37 1
    24   12   13 ar
    25   13   14 ar
    26   13   17 1
    27   14   15 ar
    28   15   16 1
    29   16   38 1
    30   16   39 1
    31   17   40 1
    32   17   41 1
    33   18   19 1
    34   18   42 1
    35   18   43 1
    36   19   20 1
    37   19   44 1
    38   19   45 1
    39   20   25 ar
    40   20   21 ar
    41   21   22 ar
    42   21   46 1
    43   22   23 ar
    44   22   47 1
    45   23   24 ar
    46   23   26 1
    47   24   25 ar
    48   24   48 1
    49   25   49 1
    50   26   27 2
    51   26   28 1
@<TRIPOS>MOLECULE
CHEMBL38158__1
   50    52     0     0     0
SMALL
USER_CHARGES

@<TRIPOS>ATOM
      1 C1         -0.0173    1.4248    0.0099 C.3       1 <0>         0.0237
      2 O1          0.0021   -0.0041    0.0020 O.3       1 <0>        -0.3255
      3 C2          0.6258   -0.6184    1.0415 C.ar      1 <0>         0.1260
      4 C3          1.2023    0.1385    2.0514 C.ar      1 <0>        -0.1948
      5 C4          1.8353   -0.4882    3.1070 C.ar      1 <0>        -0.0670
      6 C5          1.8947   -1.8689    3.1579 C.ar      1 <0>        -0.0941
      7 C6          1.3214   -2.6252    2.1527 C.ar      1 <0>        -0.0798
      8 C7          0.6822   -2.0032    1.0975 C.ar      1 <0>        -0.1318
      9 C8          0.0521   -2.8284    0.0053 C.3       1 <0>        -0.0191
     10 C9          1.0254   -2.9794   -1.1352 C.ar      1 <0>        -0.2146
     11 C10         0.9871   -2.1190   -2.2151 C.ar      1 <0>         0.2077
     12 N1          1.8569   -2.2779   -3.2017 N.ar      1 <0>        -0.5707
     13 C11         2.7585   -3.2481   -3.1651 C.ar      1 <0>         0.6591
     14 N2          2.8281   -4.0940   -2.1484 N.ar      1 <0>        -0.5738
     15 C12         1.9903   -3.9887   -1.1217 C.ar      1 <0>         0.5345
     16 N3          2.0693   -4.8713   -0.0568 N.pl3     1 <0>        -0.7747
     17 N4          3.6495   -3.3813   -4.2157 N.pl3     1 <0>        -0.7957
     18 C13         2.5859   -2.5501    4.3109 C.3       1 <0>        -0.0780
     19 C14         1.5760   -2.8072    5.4310 C.3       1 <0>        -0.0633
     20 C15         2.2672   -3.4884    6.5840 C.ar      1 <0>        -0.1063
     21 C16         2.3303   -4.8700    6.6298 C.ar      1 <0>        -0.1358
     22 C17         2.9608   -5.5003    7.6821 C.ar      1 <0>        -0.0848
     23 C18         3.5371   -4.7404    8.7031 C.ar      1 <0>        -0.1300
     24 C19         3.4699   -3.3458    8.6499 C.ar      1 <0>        -0.0834
     25 C20         2.8406   -2.7291    7.5888 C.ar      1 <0>        -0.1343
     26 C21         4.2130   -5.4073    9.8324 C.2       1 <0>         0.5160
     27 O2          4.2698   -6.6281    9.8763 O.co2     1 <0>        -0.6860
     28 O3          4.7164   -4.7393   10.7245 O.co2     1 <0>        -0.6847
     29 H1          1.0053    1.8021    0.0021 H         1 <0>         0.0566
     30 H2         -0.5445    1.7859   -0.8732 H         1 <0>         0.1028
     31 H3         -0.5275    1.7763    0.9067 H         1 <0>         0.0617
     32 H4          1.1565    1.2168    2.0119 H         1 <0>         0.1322
     33 H5          2.2845    0.1005    3.8932 H         1 <0>         0.1321
     34 H6          1.3695   -3.7034    2.1946 H         1 <0>         0.1231
     35 H7         -0.2051   -3.8129    0.3962 H         1 <0>         0.0942
     36 H8         -0.8505   -2.3317   -0.3506 H         1 <0>         0.1095
     37 H9          0.2556   -1.3254   -2.2549 H         1 <0>         0.2147
     38 H10         1.4515   -4.7908    0.6867 H         1 <0>         0.4299
     39 H11         2.7423   -5.5698   -0.0547 H         1 <0>         0.4289
     40 H12         3.6090   -2.7685   -4.9666 H         1 <0>         0.4287
     41 H13         4.3144   -4.0873   -4.2012 H         1 <0>         0.4437
     42 H14         3.0046   -3.4985    3.9744 H         1 <0>         0.0745
     43 H15         3.3866   -1.9111    4.6832 H         1 <0>         0.0779
     44 H16         1.1573   -1.8587    5.7675 H         1 <0>         0.0684
     45 H17         0.7752   -3.4461    5.0587 H         1 <0>         0.0671
     46 H18         1.8843   -5.4562    5.8399 H         1 <0>         0.1096
     47 H19         3.0087   -6.5787    7.7170 H         1 <0>         0.1256
     48 H20         3.9132   -2.7521    9.4356 H         1 <0>         0.1263
     49 H21         2.7917   -1.6512    7.5441 H         1 <0>         0.1115
     50 H22         1.8331   -1.6757   -3.9618 H         1 <0>         0.4422
@<TRIPOS>BOND
     1    1    2 1
     2    1   29 1
     3    1   30 1
     4    1   31 1
     5    2    3 1
     6    3    8 ar
     7    3    4 ar
     8    4    5 ar
     9    4   32 1
    10    5    6 ar
    11    5   33 1
    12    6    7 ar
    13    6   18 1
    14    7    8 ar
    15    7   34 1
    16    8    9 1
    17    9   10 1
    18    9   35 1
    19    9   36 1
    20   10   15 ar
    21   10   11 ar
    22   11   12 ar
    23   11   37 1
    24   12   13 ar
    25   12   50 1
    26   13   14 ar
    27   13   17 1
    28   14   15 ar
    29   15   16 1
    30   16   38 1
    31   16   39 1
    32   17   40 1
    33   17   41 1
    34   18   19 1
    35   18   42 1
    36   18   43 1
    37   19   20 1
    38   19   44 1
    39   19   45 1
    40   20   25 ar
    41   20   21 ar
    42   21   22 ar
    43   21   46 1
    44   22   23 ar
    45   22   47 1
    46   23   24 ar
    47   23   26 1
    48   24   25 ar
    49   24   48 1
    50   25   49 1
    51   26   27 2
    52   26   28 1
@<TRIPOS>MOLECULE
CHEMBL31004
   46    48     0     0     0
SMALL
USER_CHARGES

@<TRIPOS>ATOM
      1 C1          2.5364   -0.7491   -0.3546 C.3       1 <0>        -0.1721
      2 C2          1.1956   -1.3049    0.1296 C.3       1 <0>         0.4025
      3 N1          0.1949   -1.1814   -0.9367 N.pl3     1 <0>        -0.6961
      4 C3         -1.0585   -0.9582   -0.6434 C.cat     1 <0>         0.7286
      5 N2         -1.4745   -0.7896    0.6233 N.2       1 <0>        -0.6372
      6 C4         -0.6096   -0.5909    1.6008 C.2       1 <0>         0.7310
      7 N3          0.7297   -0.5331    1.2921 N.pl3     1 <0>        -0.5936
      8 C5          1.6166    0.2329    2.0558 C.ar      1 <0>         0.0935
      9 C6          1.7473    1.5941    1.8133 C.ar      1 <0>        -0.0972
     10 C7          2.6239    2.3476    2.5692 C.ar      1 <0>        -0.0854
     11 C8          3.3710    1.7481    3.5665 C.ar      1 <0>        -0.0406
     12 C9          3.2432    0.3929    3.8104 C.ar      1 <0>        -0.0855
     13 C10         2.3642   -0.3651    3.0620 C.ar      1 <0>        -0.1042
     14 C11         4.3269    2.5732    4.3889 C.3       1 <0>        -0.0825
     15 S1          3.4643    3.2252    5.8454 S.3       1 <0>        -0.1023
     16 C12         4.6992    4.1540    6.6920 C.ar      1 <0>        -0.0912
     17 C13         5.9855    4.2385    6.1726 C.ar      1 <0>        -0.1337
     18 C14         6.9508    4.9672    6.8389 C.ar      1 <0>        -0.0994
     19 C15         6.6388    5.6127    8.0216 C.ar      1 <0>        -0.1178
     20 C16         5.3599    5.5305    8.5416 C.ar      1 <0>        -0.0982
     21 C17         4.3879    4.8086    7.8777 C.ar      1 <0>        -0.0976
     22 N4         -1.0357   -0.4452    2.8917 N.pl3     1 <0>        -0.7691
     23 N5         -1.9836   -0.8930   -1.6657 N.pl3     1 <0>        -0.7921
     24 C18         1.3574   -2.7758    0.5184 C.3       1 <0>        -0.1810
     25 H1          3.2919   -0.8998    0.4164 H         1 <0>         0.1014
     26 H2          2.8374   -1.2680   -1.2647 H         1 <0>         0.0983
     27 H3          2.4349    0.3165   -0.5605 H         1 <0>         0.0828
     28 H4          1.1644    2.0629    1.0343 H         1 <0>         0.1301
     29 H5          2.7263    3.4061    2.3809 H         1 <0>         0.1413
     30 H6          3.8284   -0.0724    4.5898 H         1 <0>         0.1431
     31 H7          2.2615   -1.4226    3.2560 H         1 <0>         0.1377
     32 H8          5.1616    1.9500    4.7098 H         1 <0>         0.1051
     33 H9          4.7020    3.4015    3.7878 H         1 <0>         0.1043
     34 H10         6.2300    3.7344    5.2493 H         1 <0>         0.1211
     35 H11         7.9507    5.0330    6.4360 H         1 <0>         0.1284
     36 H12         7.3958    6.1820    8.5405 H         1 <0>         0.1292
     37 H13         5.1200    6.0355    9.4657 H         1 <0>         0.1319
     38 H14         3.3881    4.7492    8.2817 H         1 <0>         0.1285
     39 H15        -1.9762   -0.5470    3.1064 H         1 <0>         0.4408
     40 H16        -0.3976   -0.2400    3.5928 H         1 <0>         0.4305
     41 H17        -1.6992   -1.0123   -2.5854 H         1 <0>         0.4289
     42 H18        -2.9180   -0.7280   -1.4645 H         1 <0>         0.4408
     43 H19         2.0939   -2.8615    1.3174 H         1 <0>         0.0967
     44 H20         0.4005   -3.1680    0.8627 H         1 <0>         0.0718
     45 H21         1.6932   -3.3458   -0.3479 H         1 <0>         0.0969
     46 H22         0.4656   -1.2657   -1.8643 H         1 <0>         0.4315
@<TRIPOS>BOND
     1    1    2 1
     2    1   25 1
     3    1   26 1
     4    1   27 1
     5    2    7 1
     6    2    3 1
     7    2   24 1
     8    3    4 2
     9    3   46 1
    10    4    5 1
    11    4   23 1
    12    5    6 2
    13    6    7 1
    14    6   22 1
    15    7    8 1
    16    8   13 ar
    17    8    9 ar
    18    9   10 ar
    19    9   28 1
    20   10   11 ar
    21   10   29 1
    22   11   12 ar
    23   11   14 1
    24   12   13 ar
    25   12   30 1
    26   13   31 1
    27   14   15 1
    28   14   32 1
    29   14   33 1
    30   15   16 1
    31   16   21 ar
    32   16   17 ar
    33   17   18 ar
    34   17   34 1
    35   18   19 ar
    36   18   35 1
    37   19   20 ar
    38   19   36 1
    39   20   21 ar
    40   20   37 1
    41   21   38 1
    42   22   39 1
    43   22   40 1
    44   23   41 1
    45   23   42 1
    46   24   43 1
    47   24   44 1
    48   24   45 1
@<TRIPOS>MOLECULE
CHEMBL333695
   40    42     0     0     0
SMALL
USER_CHARGES

@<TRIPOS>ATOM
      1 C1         -0.0167    1.3790    0.0096 C.ar      1 <0>        -0.1057
      2 C2          1.1687    2.0919    0.0021 C.ar      1 <0>        -0.1158
      3 C3          2.3774    1.4258   -0.0129 C.ar      1 <0>        -0.1045
      4 C4          2.4022    0.0327   -0.0206 C.ar      1 <0>        -0.0689
      5 C5          1.2051   -0.6804   -0.0130 C.ar      1 <0>        -0.1065
      6 C6          0.0021   -0.0041    0.0020 C.ar      1 <0>        -0.1170
      7 C7          3.6987   -0.6889   -0.0373 C.ar      1 <0>        -0.0191
      8 C8          4.8958    0.0241   -0.0395 C.ar      1 <0>        -0.1054
      9 C9          6.0988   -0.6522   -0.0546 C.ar      1 <0>        -0.0993
     10 C10         6.1176   -2.0352   -0.0680 C.ar      1 <0>        -0.1265
     11 C11         4.9322   -2.7481   -0.0663 C.ar      1 <0>        -0.1260
     12 C12         3.7235   -2.0821   -0.0450 C.ar      1 <0>        -0.1094
     13 C13         7.4343   -2.7680   -0.0849 C.3       1 <0>        -0.0677
     14 C14         7.8907   -3.0298    1.3518 C.3       1 <0>        -0.1023
     15 C15         9.2763   -3.6912    1.3423 C.3       1 <0>         0.1245
     16 N1          9.1351   -5.0622    0.8252 N.pl3     1 <0>        -0.7838
     17 C16         8.1686   -5.8721    1.4004 C.2       1 <0>         0.6036
     18 N2          6.9185   -5.2946    1.6110 N.pl3     1 <0>        -0.6489
     19 C17         6.9193   -3.9723    2.0328 C.cat     1 <0>         0.5738
     20 N3          6.1256   -3.5626    2.9668 N.pl3     1 <0>        -0.6779
     21 N4          8.4160   -7.1085    1.7264 N.2       1 <0>        -0.6811
     22 H1         -0.9603    1.9042    0.0260 H         1 <0>         0.1288
     23 H2          1.1483    3.1717    0.0077 H         1 <0>         0.1296
     24 H3          3.3023    1.9834   -0.0191 H         1 <0>         0.1263
     25 H4          1.2186   -1.7603   -0.0193 H         1 <0>         0.1236
     26 H5         -0.9264   -0.5558    0.0082 H         1 <0>         0.1286
     27 H6          4.8823    1.1040   -0.0299 H         1 <0>         0.1341
     28 H7          7.0273   -0.1005   -0.0564 H         1 <0>         0.1332
     29 H8          4.9525   -3.8278   -0.0771 H         1 <0>         0.1153
     30 H9          2.7986   -2.6396   -0.0392 H         1 <0>         0.1305
     31 H10         7.3150   -3.7174   -0.6069 H         1 <0>         0.0938
     32 H11         8.1807   -2.1622   -0.5986 H         1 <0>         0.1160
     33 H12         7.9356   -2.0889    1.9003 H         1 <0>         0.1408
     34 H13         9.9485   -3.1241    0.6983 H         1 <0>         0.1244
     35 H14         9.6747   -3.7214    2.3565 H         1 <0>         0.0871
     36 H15         6.1437   -2.6338    3.2458 H         1 <0>         0.4547
     37 H16         5.5118   -4.1839    3.3888 H         1 <0>         0.4393
     38 H17         9.2958   -7.4852    1.5680 H         1 <0>         0.3800
     39 H18         9.6995   -5.3877    0.1066 H         1 <0>         0.4284
     40 H19         6.0952   -5.7879    1.4708 H         1 <0>         0.4496
@<TRIPOS>BOND
     1    1    6 ar
     2    1    2 ar
     3    1   22 1
     4    2    3 ar
     5    2   23 1
     6    3    4 ar
     7    3   24 1
     8    4    5 ar
     9    4    7 1
    10    5    6 ar
    11    5   25 1
    12    6   26 1
    13    7   12 ar
    14    7    8 ar
    15    8    9 ar
    16    8   27 1
    17    9   10 ar
    18    9   28 1
    19   10   11 ar
    20   10   13 1
    21   11   12 ar
    22   11   29 1
    23   12   30 1
    24   13   14 1
    25   13   31 1
    26   13   32 1
    27   14   19 1
    28   14   15 1
    29   14   33 1
    30   15   16 1
    31   15   34 1
    32   15   35 1
    33   16   17 1
    34   16   39 1
    35   17   18 1
    36   17   21 2
    37   18   19 1
    38   18   40 1
    39   19   20 2
    40   20   36 1
    41   20   37 1
    42   21   38 1
@<TRIPOS>MOLECULE
CHEMBL333695__1
   40    42     0     0     0
SMALL
USER_CHARGES

@<TRIPOS>ATOM
      1 C1         -0.0167    1.3790    0.0096 C.ar      1 <0>        -0.1059
      2 C2          1.1687    2.0919    0.0021 C.ar      1 <0>        -0.1157
      3 C3          2.3774    1.4258   -0.0129 C.ar      1 <0>        -0.1044
      4 C4          2.4022    0.0327   -0.0206 C.ar      1 <0>        -0.0683
      5 C5          1.2051   -0.6804   -0.0130 C.ar      1 <0>        -0.1066
      6 C6          0.0021   -0.0041    0.0020 C.ar      1 <0>        -0.1172
      7 C7          3.6987   -0.6889   -0.0373 C.ar      1 <0>        -0.0190
      8 C8          4.8958    0.0241   -0.0395 C.ar      1 <0>        -0.1056
      9 C9          6.0988   -0.6522   -0.0546 C.ar      1 <0>        -0.0980
     10 C10         6.1176   -2.0352   -0.0680 C.ar      1 <0>        -0.1255
     11 C11         4.9322   -2.7481   -0.0663 C.ar      1 <0>        -0.1213
     12 C12         3.7235   -2.0821   -0.0450 C.ar      1 <0>        -0.1104
     13 C13         7.4343   -2.7680   -0.0849 C.3       1 <0>        -0.0702
     14 C14         7.8907   -3.0298    1.3518 C.3       1 <0>        -0.1103
     15 C15         9.2797   -3.6740    1.3389 C.3       1 <0>         0.0655
     16 N1          9.1634   -5.0666    0.9023 N.2       1 <0>        -0.5656
     17 C16         8.1105   -5.7755    1.1981 C.2       1 <0>         0.5846
     18 N2          7.0837   -5.2597    1.9157 N.pl3     1 <0>        -0.5991
     19 C17         6.9217   -3.9681    2.0263 C.cat     1 <0>         0.5606
     20 N3          5.8817   -3.4709    2.7481 N.pl3     1 <0>        -0.7467
     21 N4          8.0400   -7.0848    0.7698 N.pl3     1 <0>        -0.8227
     22 H1         -0.9603    1.9042    0.0260 H         1 <0>         0.1287
     23 H2          1.1483    3.1717    0.0077 H         1 <0>         0.1296
     24 H3          3.3023    1.9834   -0.0191 H         1 <0>         0.1265
     25 H4          1.2186   -1.7603   -0.0193 H         1 <0>         0.1233
     26 H5         -0.9264   -0.5558    0.0082 H         1 <0>         0.1283
     27 H6          4.8823    1.1040   -0.0299 H         1 <0>         0.1345
     28 H7          7.0273   -0.1005   -0.0564 H         1 <0>         0.1338
     29 H8          4.9525   -3.8278   -0.0771 H         1 <0>         0.1132
     30 H9          2.7986   -2.6396   -0.0392 H         1 <0>         0.1301
     31 H10         7.3150   -3.7174   -0.6069 H         1 <0>         0.0871
     32 H11         8.1807   -2.1622   -0.5986 H         1 <0>         0.1188
     33 H12         7.9286   -2.0884    1.8999 H         1 <0>         0.1476
     34 H13         9.9268   -3.1299    0.6509 H         1 <0>         0.1353
     35 H14         9.7051   -3.6416    2.3419 H         1 <0>         0.0969
     36 H15         5.7625   -2.5116    2.8294 H         1 <0>         0.4514
     37 H16         5.2592   -4.0754    3.1814 H         1 <0>         0.4317
     38 H17         8.7683   -7.4667    0.2554 H         1 <0>         0.4392
     39 H18         7.2621   -7.6236    0.9830 H         1 <0>         0.4154
     40 H19         6.4591   -5.8587    2.3539 H         1 <0>         0.4304
@<TRIPOS>BOND
     1    1    6 ar
     2    1    2 ar
     3    1   22 1
     4    2    3 ar
     5    2   23 1
     6    3    4 ar
     7    3   24 1
     8    4    5 ar
     9    4    7 1
    10    5    6 ar
    11    5   25 1
    12    6   26 1
    13    7   12 ar
    14    7    8 ar
    15    8    9 ar
    16    8   27 1
    17    9   10 ar
    18    9   28 1
    19   10   11 ar
    20   10   13 1
    21   11   12 ar
    22   11   29 1
    23   12   30 1
    24   13   14 1
    25   13   31 1
    26   13   32 1
    27   14   19 1
    28   14   15 1
    29   14   33 1
    30   15   16 1
    31   15   34 1
    32   15   35 1
    33   16   17 2
    34   17   18 1
    35   17   21 1
    36   18   19 2
    37   18   40 1
    38   19   20 1
    39   20   36 1
    40   20   37 1
    41   21   38 1
    42   21   39 1
@<TRIPOS>MOLECULE
CHEMBL333695__2
   40    42     0     0     0
SMALL
USER_CHARGES

@<TRIPOS>ATOM
      1 C1         -0.0167    1.3790    0.0096 C.ar      1 <0>        -0.1057
      2 C2          1.1687    2.0919    0.0021 C.ar      1 <0>        -0.1170
      3 C3          2.3774    1.4258   -0.0129 C.ar      1 <0>        -0.1067
      4 C4          2.4022    0.0327   -0.0206 C.ar      1 <0>        -0.0688
      5 C5          1.2051   -0.6804   -0.0130 C.ar      1 <0>        -0.1045
      6 C6          0.0021   -0.0041    0.0020 C.ar      1 <0>        -0.1157
      7 C7          3.6987   -0.6889   -0.0373 C.ar      1 <0>        -0.0194
      8 C8          4.8958    0.0241   -0.0395 C.ar      1 <0>        -0.1098
      9 C9          6.0988   -0.6522   -0.0546 C.ar      1 <0>        -0.1259
     10 C10         6.1176   -2.0352   -0.0680 C.ar      1 <0>        -0.1254
     11 C11         4.9322   -2.7481   -0.0663 C.ar      1 <0>        -0.0992
     12 C12         3.7235   -2.0821   -0.0450 C.ar      1 <0>        -0.1054
     13 C13         7.4343   -2.7680   -0.0849 C.3       1 <0>        -0.0680
     14 C14         7.8907   -3.0298    1.3518 C.3       1 <0>        -0.1029
     15 C15         9.1830   -3.8589    1.3414 C.3       1 <0>         0.1306
     16 N1         10.2761   -3.0124    0.8361 N.pl3     1 <0>        -0.7353
     17 C16        10.4526   -1.7689    1.4223 C.2       1 <0>         0.6089
     18 N2          9.3022   -1.0124    1.6339 N.pl3     1 <0>        -0.6992
     19 C17         8.1769   -1.7131    2.0449 C.cat     1 <0>         0.5661
     20 N3          7.4058   -1.2617    2.9785 N.pl3     1 <0>        -0.6821
     21 N4         11.6323   -1.3307    1.7580 N.2       1 <0>        -0.6643
     22 H1         -0.9603    1.9042    0.0260 H         1 <0>         0.1288
     23 H2          1.1483    3.1717    0.0077 H         1 <0>         0.1285
     24 H3          3.3023    1.9834   -0.0191 H         1 <0>         0.1232
     25 H4          1.2186   -1.7603   -0.0193 H         1 <0>         0.1265
     26 H5         -0.9264   -0.5558    0.0082 H         1 <0>         0.1297
     27 H6          4.8823    1.1040   -0.0299 H         1 <0>         0.1298
     28 H7          7.0273   -0.1005   -0.0564 H         1 <0>         0.1141
     29 H8          4.9525   -3.8278   -0.0771 H         1 <0>         0.1336
     30 H9          2.7986   -2.6396   -0.0392 H         1 <0>         0.1341
     31 H10         7.3150   -3.7174   -0.6069 H         1 <0>         0.1167
     32 H11         8.1807   -2.1622   -0.5986 H         1 <0>         0.0941
     33 H12         7.1123   -3.5681    1.8924 H         1 <0>         0.1403
     34 H13         9.4140   -4.1899    2.3540 H         1 <0>         0.0889
     35 H14         9.0581   -4.7237    0.6898 H         1 <0>         0.1297
     36 H15         6.6242   -1.7684    3.2494 H         1 <0>         0.4529
     37 H16         7.6085   -0.4161    3.4084 H         1 <0>         0.4369
     38 H17        11.7266   -0.4561    2.1668 H         1 <0>         0.3646
     39 H18        10.8535   -3.3147    0.1177 H         1 <0>         0.4363
     40 H19         9.2885   -0.0515    1.5020 H         1 <0>         0.4410
@<TRIPOS>BOND
     1    1    6 ar
     2    1    2 ar
     3    1   22 1
     4    2    3 ar
     5    2   23 1
     6    3    4 ar
     7    3   24 1
     8    4    5 ar
     9    4    7 1
    10    5    6 ar
    11    5   25 1
    12    6   26 1
    13    7   12 ar
    14    7    8 ar
    15    8    9 ar
    16    8   27 1
    17    9   10 ar
    18    9   28 1
    19   10   11 ar
    20   10   13 1
    21   11   12 ar
    22   11   29 1
    23   12   30 1
    24   13   14 1
    25   13   31 1
    26   13   32 1
    27   14   19 1
    28   14   15 1
    29   14   33 1
    30   15   16 1
    31   15   34 1
    32   15   35 1
    33   16   17 1
    34   16   39 1
    35   17   18 1
    36   17   21 2
    37   18   19 1
    38   18   40 1
    39   19   20 2
    40   20   36 1
    41   20   37 1
    42   21   38 1
@<TRIPOS>MOLECULE
CHEMBL333695__3
   40    42     0     0     0
SMALL
USER_CHARGES

@<TRIPOS>ATOM
      1 C1         -0.3598    0.6679    0.0004 C.ar      1 <0>        -0.1084
      2 C2          0.7573    1.4827    0.0375 C.ar      1 <0>        -0.1173
      3 C3          2.0207    0.9271    0.0225 C.ar      1 <0>        -0.1061
      4 C4          2.1695   -0.4573   -0.0300 C.ar      1 <0>        -0.0648
      5 C5          1.0407   -1.2733   -0.0671 C.ar      1 <0>        -0.1056
      6 C6         -0.2179   -0.7070   -0.0518 C.ar      1 <0>        -0.1170
      7 C7          3.5252   -1.0604   -0.0467 C.ar      1 <0>        -0.0197
      8 C8          4.6540   -0.2445   -0.0042 C.ar      1 <0>        -0.1090
      9 C9          5.9125   -0.8108   -0.0196 C.ar      1 <0>        -0.1046
     10 C10         6.0545   -2.1855   -0.0775 C.ar      1 <0>        -0.1119
     11 C11         4.9374   -3.0001   -0.1204 C.ar      1 <0>        -0.1019
     12 C12         3.6740   -2.4448   -0.0993 C.ar      1 <0>        -0.1082
     13 C13         7.4313   -2.7980   -0.0946 C.3       1 <0>        -0.0731
     14 C14         7.9468   -2.9340    1.3396 C.3       1 <0>        -0.1136
     15 C15         7.0819   -3.9417    2.1017 C.3       1 <0>         0.0690
     16 N1          7.7585   -4.3184    3.3441 N.2       1 <0>        -0.5653
     17 C16         9.0587   -4.3867    3.4045 C.2       1 <0>         0.5828
     18 N2          9.8366   -4.1122    2.3299 N.pl3     1 <0>        -0.5961
     19 C17         9.3716   -3.4278    1.3192 C.cat     1 <0>         0.5593
     20 N3         10.1703   -3.1611    0.2512 N.pl3     1 <0>        -0.7546
     21 N4          9.6580   -4.7473    4.5933 N.pl3     1 <0>        -0.8220
     22 H1         -1.3465    1.1067    0.0168 H         1 <0>         0.1273
     23 H2          0.6408    2.5557    0.0778 H         1 <0>         0.1279
     24 H3          2.8922    1.5643    0.0512 H         1 <0>         0.1251
     25 H4          1.1504   -2.3469   -0.1082 H         1 <0>         0.1257
     26 H5         -1.0935   -1.3386   -0.0803 H         1 <0>         0.1281
     27 H6          4.5443    0.8290    0.0403 H         1 <0>         0.1311
     28 H7          6.7881   -0.1794    0.0133 H         1 <0>         0.1249
     29 H8          5.0540   -4.0728   -0.1659 H         1 <0>         0.1272
     30 H9          2.8025   -3.0819   -0.1283 H         1 <0>         0.1320
     31 H10         7.3851   -3.7830   -0.5590 H         1 <0>         0.0969
     32 H11         8.1062   -2.1591   -0.6642 H         1 <0>         0.0876
     33 H12         7.9036   -1.9647    1.8362 H         1 <0>         0.1540
     34 H13         6.1175   -3.4905    2.3349 H         1 <0>         0.1348
     35 H14         6.9298   -4.8289    1.4869 H         1 <0>         0.0952
     36 H15         9.8520   -2.5837   -0.4603 H         1 <0>         0.4506
     37 H16        11.0582   -3.5484    0.2009 H         1 <0>         0.4331
     38 H17         9.1129   -4.9462    5.3706 H         1 <0>         0.4395
     39 H18        10.6247   -4.8021    4.6521 H         1 <0>         0.4158
     40 H19        10.7532   -4.4291    2.3105 H         1 <0>         0.4313
@<TRIPOS>BOND
     1    1    6 ar
     2    1    2 ar
     3    1   22 1
     4    2    3 ar
     5    2   23 1
     6    3    4 ar
     7    3   24 1
     8    4    5 ar
     9    4    7 1
    10    5    6 ar
    11    5   25 1
    12    6   26 1
    13    7   12 ar
    14    7    8 ar
    15    8    9 ar
    16    8   27 1
    17    9   10 ar
    18    9   28 1
    19   10   11 ar
    20   10   13 1
    21   11   12 ar
    22   11   29 1
    23   12   30 1
    24   13   14 1
    25   13   31 1
    26   13   32 1
    27   14   19 1
    28   14   15 1
    29   14   33 1
    30   15   16 1
    31   15   34 1
    32   15   35 1
    33   16   17 2
    34   17   18 1
    35   17   21 1
    36   18   19 2
    37   18   40 1
    38   19   20 1
    39   20   36 1
    40   20   37 1
    41   21   38 1
    42   21   39 1
@<TRIPOS>MOLECULE
CHEMBL297558
   72    75     0     0     0
SMALL
USER_CHARGES

@<TRIPOS>ATOM
      1 C1          0.4041    1.3182    0.9527 C.ar      1 <0>        -0.1360
      2 C2          0.9300    2.0680   -0.0842 C.ar      1 <0>        -0.1261
      3 C3          1.7203    1.4711   -1.0484 C.ar      1 <0>        -0.0939
      4 C4          1.9918    0.1063   -0.9789 C.ar      1 <0>        -0.0923
      5 C5          1.4567   -0.6561    0.0769 C.ar      1 <0>        -0.0952
      6 C6          0.6630   -0.0376    1.0378 C.ar      1 <0>        -0.1121
      7 C7          1.7360   -2.1069    0.1636 C.2       1 <0>         0.5711
      8 O1          2.8840   -2.5057    0.1651 O.2       1 <0>        -0.4942
      9 N1          0.7172   -2.9859    0.2408 N.am      1 <0>        -0.7354
     10 C8          0.9937   -4.4220    0.3266 C.3       1 <0>         0.1254
     11 C9         -0.3263   -5.1919    0.4031 C.3       1 <0>        -0.1260
     12 C10        -0.0375   -6.6917    0.4927 C.3       1 <0>        -0.1071
     13 C11        -1.3575   -7.4615    0.5692 C.3       1 <0>         0.0783
     14 C12        -1.0733   -8.9263    0.7807 C.2       1 <0>         0.4939
     15 O2         -0.9830   -9.3726    1.9117 O.co2     1 <0>        -0.6965
     16 O3         -0.9336   -9.6650   -0.1791 O.co2     1 <0>        -0.6914
     17 N2         -2.0997   -7.2837   -0.6813 N.am      1 <0>        -0.6847
     18 C13        -3.4412   -7.4133   -0.6931 C.2       1 <0>         0.5489
     19 O4         -4.0352   -7.6777    0.3339 O.2       1 <0>        -0.5478
     20 C14        -4.1902   -7.2339   -1.9551 C.ar      1 <0>        -0.1182
     21 C15        -3.5105   -6.9360   -3.1372 C.ar      1 <0>        -0.0816
     22 C16        -4.2154   -6.7703   -4.3115 C.ar      1 <0>        -0.1235
     23 C17        -5.5930   -6.8984   -4.3190 C.ar      1 <0>        -0.0715
     24 C18        -6.2729   -7.1932   -3.1505 C.ar      1 <0>        -0.1275
     25 C19        -5.5795   -7.3675   -1.9707 C.ar      1 <0>        -0.0625
     26 C20        -6.3565   -6.7156   -5.6054 C.3       1 <0>        -0.0723
     27 C21        -6.4823   -8.0627   -6.3196 C.3       1 <0>        -0.0740
     28 C22        -7.2457   -7.8799   -7.6060 C.ar      1 <0>        -0.1085
     29 C23        -8.6335   -8.0049   -7.6043 C.ar      1 <0>        -0.0834
     30 C24        -9.3519   -7.8456   -8.7493 C.ar      1 <0>        -0.1361
     31 C25        -8.6870   -7.5506   -9.9528 C.ar      1 <0>         0.0368
     32 C26        -9.3988   -7.3797  -11.1515 C.ar      1 <0>        -0.2701
     33 C27        -8.7200   -7.0907  -12.3158 C.ar      1 <0>         0.2668
     34 C28        -7.3274   -6.9650  -12.3196 C.ar      1 <0>        -0.2829
     35 C29        -6.6042   -7.1277  -11.1600 C.ar      1 <0>         0.2751
     36 C30        -7.2760   -7.4238   -9.9532 C.ar      1 <0>        -0.1371
     37 C31        -6.5697   -7.5895   -8.7519 C.ar      1 <0>        -0.0767
     38 N3         -5.2170   -7.0009  -11.1763 N.pl3     1 <0>        -0.8660
     39 N4         -9.4312   -6.9221  -13.5051 N.pl3     1 <0>        -0.8780
     40 C32         2.8352   -0.5368   -2.0066 C.2       1 <0>         0.5121
     41 O5          3.3975    0.1459   -2.8509 O.co2     1 <0>        -0.6952
     42 O6          2.9712   -1.7519   -2.0132 O.co2     1 <0>        -0.6488
     43 H1         -0.2088    1.7956    1.7030 H         1 <0>         0.1162
     44 H2          0.7214    3.1262   -0.1409 H         1 <0>         0.1151
     45 H3          2.1270    2.0623   -1.8555 H         1 <0>         0.1292
     46 H4          0.2490   -0.6164    1.8502 H         1 <0>         0.1195
     47 H5         -0.1991   -2.6676    0.2395 H         1 <0>         0.3911
     48 H6          1.5483   -4.7387   -0.5568 H         1 <0>         0.0675
     49 H7          1.5852   -4.6255    1.2192 H         1 <0>         0.0612
     50 H8         -0.8809   -4.8752    1.2864 H         1 <0>         0.0647
     51 H9         -0.9178   -4.9884   -0.4896 H         1 <0>         0.0643
     52 H10         0.5171   -7.0083   -0.3906 H         1 <0>         0.0692
     53 H11         0.5540   -6.8951    1.3853 H         1 <0>         0.0799
     54 H12        -1.9513   -7.0828    1.4011 H         1 <0>         0.0833
     55 H13        -1.6257   -7.0728   -1.5009 H         1 <0>         0.3927
     56 H14        -2.4353   -6.8351   -3.1326 H         1 <0>         0.1283
     57 H15        -3.6907   -6.5398   -5.2269 H         1 <0>         0.1246
     58 H16        -7.3483   -7.2915   -3.1630 H         1 <0>         0.1233
     59 H17        -6.1108   -7.6023   -1.0602 H         1 <0>         0.1335
     60 H18        -7.3507   -6.3265   -5.3856 H         1 <0>         0.0729
     61 H19        -5.8248   -6.0126   -6.2466 H         1 <0>         0.0727
     62 H20        -5.4881   -8.4518   -6.5393 H         1 <0>         0.0732
     63 H21        -7.0140   -8.7657   -5.6783 H         1 <0>         0.0742
     64 H22        -9.1464   -8.2317   -6.6814 H         1 <0>         0.1202
     65 H23       -10.4271   -7.9456   -8.7337 H         1 <0>         0.1223
     66 H24       -10.4745   -7.4748  -11.1609 H         1 <0>         0.1164
     67 H25        -6.8139   -6.7382  -13.2423 H         1 <0>         0.1169
     68 H26        -5.4943   -7.4913   -8.7371 H         1 <0>         0.1172
     69 H27        -4.7583   -6.7975  -12.0064 H         1 <0>         0.4007
     70 H28        -4.7099   -7.1161  -10.3575 H         1 <0>         0.4017
     71 H29       -10.3973   -7.0084  -13.5089 H         1 <0>         0.3972
     72 H30        -8.9592   -6.7186  -14.3278 H         1 <0>         0.3951
@<TRIPOS>BOND
     1    1    6 ar
     2    1    2 ar
     3    1   43 1
     4    2    3 ar
     5    2   44 1
     6    3    4 ar
     7    3   45 1
     8    4    5 ar
     9    4   40 1
    10    5    6 ar
    11    5    7 1
    12    6   46 1
    13    7    8 2
    14    7    9 am
    15    9   10 1
    16    9   47 1
    17   10   11 1
    18   10   48 1
    19   10   49 1
    20   11   12 1
    21   11   50 1
    22   11   51 1
    23   12   13 1
    24   12   52 1
    25   12   53 1
    26   13   14 1
    27   13   17 1
    28   13   54 1
    29   14   15 2
    30   14   16 1
    31   17   18 am
    32   17   55 1
    33   18   19 2
    34   18   20 1
    35   20   25 ar
    36   20   21 ar
    37   21   22 ar
    38   21   56 1
    39   22   23 ar
    40   22   57 1
    41   23   24 ar
    42   23   26 1
    43   24   25 ar
    44   24   58 1
    45   25   59 1
    46   26   27 1
    47   26   60 1
    48   26   61 1
    49   27   28 1
    50   27   62 1
    51   27   63 1
    52   28   37 ar
    53   28   29 ar
    54   29   30 ar
    55   29   64 1
    56   30   31 ar
    57   30   65 1
    58   31   36 ar
    59   31   32 ar
    60   32   33 ar
    61   32   66 1
    62   33   34 ar
    63   33   39 1
    64   34   35 ar
    65   34   67 1
    66   35   36 ar
    67   35   38 1
    68   36   37 ar
    69   37   68 1
    70   38   69 1
    71   38   70 1
    72   39   71 1
    73   39   72 1
    74   40   41 2
    75   40   42 1
@<TRIPOS>MOLECULE
CHEMBL297558__1
   72    75     0     0     0
SMALL
USER_CHARGES

@<TRIPOS>ATOM
      1 C1          0.4041    1.3182    0.9527 C.ar      1 <0>        -0.1364
      2 C2          0.9300    2.0680   -0.0842 C.ar      1 <0>        -0.1260
      3 C3          1.7203    1.4711   -1.0484 C.ar      1 <0>        -0.0937
      4 C4          1.9918    0.1063   -0.9789 C.ar      1 <0>        -0.0916
      5 C5          1.4567   -0.6561    0.0769 C.ar      1 <0>        -0.0952
      6 C6          0.6630   -0.0376    1.0378 C.ar      1 <0>        -0.1122
      7 C7          1.7360   -2.1069    0.1636 C.2       1 <0>         0.5709
      8 O1          2.8840   -2.5057    0.1651 O.2       1 <0>        -0.4941
      9 N1          0.7172   -2.9859    0.2408 N.am      1 <0>        -0.7353
     10 C8          0.9937   -4.4220    0.3266 C.3       1 <0>         0.1254
     11 C9         -0.3263   -5.1919    0.4031 C.3       1 <0>        -0.1261
     12 C10        -0.0375   -6.6917    0.4927 C.3       1 <0>        -0.1055
     13 C11        -1.3575   -7.4615    0.5692 C.3       1 <0>         0.0766
     14 C12        -1.0784   -8.9420    0.5336 C.2       1 <0>         0.4929
     15 O2         -1.2554   -9.6199    1.5315 O.co2     1 <0>        -0.6910
     16 O3         -0.6756   -9.4619   -0.4930 O.co2     1 <0>        -0.6957
     17 N2         -2.0478   -7.1245    1.8167 N.am      1 <0>        -0.6835
     18 C13        -3.3873   -7.2480    1.9003 C.2       1 <0>         0.5520
     19 O4         -4.0226   -7.6390    0.9406 O.2       1 <0>        -0.5475
     20 C14        -4.0839   -6.9079    3.1592 C.ar      1 <0>        -0.1147
     21 C15        -3.3579   -6.4532    4.2612 C.ar      1 <0>        -0.0833
     22 C16        -4.0141   -6.1371    5.4328 C.ar      1 <0>        -0.1246
     23 C17        -5.3887   -6.2705    5.5171 C.ar      1 <0>        -0.0728
     24 C18        -6.1142   -6.7212    4.4286 C.ar      1 <0>        -0.1264
     25 C19        -5.4710   -7.0348    3.2491 C.ar      1 <0>        -0.0623
     26 C20        -6.0987   -5.9238    6.8003 C.3       1 <0>        -0.0720
     27 C21        -6.4988   -4.4472    6.7790 C.3       1 <0>        -0.0734
     28 C22        -7.2089   -4.1005    8.0622 C.ar      1 <0>        -0.1085
     29 C23        -8.5927   -4.2429    8.1411 C.ar      1 <0>        -0.0836
     30 C24        -9.2634   -3.9383    9.2856 C.ar      1 <0>        -0.1355
     31 C25        -8.5526   -3.4731   10.4061 C.ar      1 <0>         0.0368
     32 C26        -9.2144   -3.1506   11.6022 C.ar      1 <0>        -0.2695
     33 C27        -8.4912   -2.6972   12.6844 C.ar      1 <0>         0.2668
     34 C28        -7.1024   -2.5535   12.6072 C.ar      1 <0>        -0.2825
     35 C29        -6.4276   -2.8616   11.4479 C.ar      1 <0>         0.2744
     36 C30        -7.1456   -3.3287   10.3247 C.ar      1 <0>        -0.1372
     37 C31        -6.4879   -3.6580    9.1295 C.ar      1 <0>        -0.0772
     38 N3         -5.0441   -2.7136   11.3826 N.pl3     1 <0>        -0.8664
     39 N4         -9.1529   -2.3773   13.8712 N.pl3     1 <0>        -0.8779
     40 C32         2.8352   -0.5368   -2.0066 C.2       1 <0>         0.5113
     41 O5          3.3975    0.1459   -2.8509 O.co2     1 <0>        -0.6950
     42 O6          2.9712   -1.7519   -2.0132 O.co2     1 <0>        -0.6479
     43 H1         -0.2088    1.7956    1.7030 H         1 <0>         0.1159
     44 H2          0.7214    3.1262   -0.1409 H         1 <0>         0.1151
     45 H3          2.1270    2.0623   -1.8555 H         1 <0>         0.1294
     46 H4          0.2490   -0.6164    1.8502 H         1 <0>         0.1189
     47 H5         -0.1991   -2.6676    0.2395 H         1 <0>         0.3910
     48 H6          1.5483   -4.7387   -0.5568 H         1 <0>         0.0690
     49 H7          1.5852   -4.6255    1.2192 H         1 <0>         0.0596
     50 H8         -0.8809   -4.8752    1.2864 H         1 <0>         0.0612
     51 H9         -0.9178   -4.9884   -0.4896 H         1 <0>         0.0672
     52 H10         0.5171   -7.0083   -0.3906 H         1 <0>         0.0862
     53 H11         0.5540   -6.8951    1.3853 H         1 <0>         0.0635
     54 H12        -1.9863   -7.1898   -0.2788 H         1 <0>         0.0849
     55 H13        -1.5408   -6.8125    2.5825 H         1 <0>         0.3895
     56 H14        -2.2848   -6.3493    4.1969 H         1 <0>         0.1266
     57 H15        -3.4536   -5.7851    6.2862 H         1 <0>         0.1231
     58 H16        -7.1869   -6.8234    4.5010 H         1 <0>         0.1234
     59 H17        -6.0389   -7.3818    2.3986 H         1 <0>         0.1339
     60 H18        -6.9917   -6.5408    6.8996 H         1 <0>         0.0729
     61 H19        -5.4342   -6.1080    7.6445 H         1 <0>         0.0717
     62 H20        -5.6058   -3.8302    6.6797 H         1 <0>         0.0728
     63 H21        -7.1634   -4.2630    5.9348 H         1 <0>         0.0743
     64 H22        -9.1409   -4.5997    7.2817 H         1 <0>         0.1204
     65 H23       -10.3363   -4.0530    9.3327 H         1 <0>         0.1225
     66 H24       -10.2867   -3.2571   11.6736 H         1 <0>         0.1167
     67 H25        -6.5535   -2.1967   13.4662 H         1 <0>         0.1168
     68 H26        -5.4153   -3.5568    9.0550 H         1 <0>         0.1167
     69 H27        -4.5536   -2.3927   12.1555 H         1 <0>         0.4005
     70 H28        -4.5711   -2.9315   10.5643 H         1 <0>         0.4013
     71 H29       -10.1162   -2.4745   13.9308 H         1 <0>         0.3975
     72 H30        -8.6495   -2.0577   14.6363 H         1 <0>         0.3951
@<TRIPOS>BOND
     1    1    6 ar
     2    1    2 ar
     3    1   43 1
     4    2    3 ar
     5    2   44 1
     6    3    4 ar
     7    3   45 1
     8    4    5 ar
     9    4   40 1
    10    5    6 ar
    11    5    7 1
    12    6   46 1
    13    7    8 2
    14    7    9 am
    15    9   10 1
    16    9   47 1
    17   10   11 1
    18   10   48 1
    19   10   49 1
    20   11   12 1
    21   11   50 1
    22   11   51 1
    23   12   13 1
    24   12   52 1
    25   12   53 1
    26   13   14 1
    27   13   17 1
    28   13   54 1
    29   14   15 2
    30   14   16 1
    31   17   18 am
    32   17   55 1
    33   18   19 2
    34   18   20 1
    35   20   25 ar
    36   20   21 ar
    37   21   22 ar
    38   21   56 1
    39   22   23 ar
    40   22   57 1
    41   23   24 ar
    42   23   26 1
    43   24   25 ar
    44   24   58 1
    45   25   59 1
    46   26   27 1
    47   26   60 1
    48   26   61 1
    49   27   28 1
    50   27   62 1
    51   27   63 1
    52   28   37 ar
    53   28   29 ar
    54   29   30 ar
    55   29   64 1
    56   30   31 ar
    57   30   65 1
    58   31   36 ar
    59   31   32 ar
    60   32   33 ar
    61   32   66 1
    62   33   34 ar
    63   33   39 1
    64   34   35 ar
    65   34   67 1
    66   35   36 ar
    67   35   38 1
    68   36   37 ar
    69   37   68 1
    70   38   69 1
    71   38   70 1
    72   39   71 1
    73   39   72 1
    74   40   41 2
    75   40   42 1
@<TRIPOS>MOLECULE
CHEMBL11191
   51    53     0     0     0
SMALL
USER_CHARGES

@<TRIPOS>ATOM
      1 C1         -0.0167    1.3794    0.0096 C.ar      1 <0>        -0.1263
      2 C2          1.1667    2.0884    0.0021 C.ar      1 <0>        -0.0644
      3 C3          2.3848    1.4070   -0.0132 C.ar      1 <0>        -0.1084
      4 C4          2.3966    0.0113   -0.0208 C.ar      1 <0>        -0.0829
      5 C5          1.2061   -0.6856   -0.0132 C.ar      1 <0>        -0.1205
      6 C6          0.0021   -0.0041    0.0020 C.ar      1 <0>        -0.0796
      7 C7         -1.2946   -0.7719    0.0103 C.3       1 <0>        -0.0689
      8 C8         -1.7472   -1.0241   -1.4293 C.3       1 <0>        -0.0599
      9 C9         -3.0439   -1.7919   -1.4210 C.ar      1 <0>         0.0597
     10 C10        -4.2522   -1.1053   -1.3060 C.ar      1 <0>         0.1452
     11 N1         -5.3973   -1.7539   -1.2968 N.ar      1 <0>        -0.4421
     12 C11        -5.4012   -3.0853   -1.3990 C.ar      1 <0>         0.3642
     13 C12        -4.1703   -3.7781   -1.5157 C.ar      1 <0>        -0.0872
     14 N2         -3.0251   -3.1035   -1.5279 N.ar      1 <0>        -0.3801
     15 C13        -4.2151   -5.2372   -1.6262 C.ar      1 <0>         0.5428
     16 N3         -5.4057   -5.8202   -1.6101 N.ar      1 <0>        -0.6312
     17 C14        -6.5218   -5.1069   -1.4976 C.ar      1 <0>         0.6352
     18 N4         -6.5377   -3.7928   -1.3953 N.ar      1 <0>        -0.6030
     19 N5         -7.7294   -5.7786   -1.4875 N.pl3     1 <0>        -0.8115
     20 N6         -3.0600   -5.9788   -1.7432 N.pl3     1 <0>        -0.7910
     21 C15         3.6569    2.1603   -0.0218 C.2       1 <0>         0.5423
     22 O1          3.6435    3.3757   -0.0155 O.2       1 <0>        -0.5527
     23 N7          4.8314    1.4994   -0.0366 N.am      1 <0>        -0.6749
     24 C16         6.0919    2.2459   -0.0451 C.3       1 <0>         0.0734
     25 C17         7.1909    1.3839   -0.6698 C.3       1 <0>        -0.0825
     26 C18         6.8626    1.1271   -2.1419 C.3       1 <0>        -0.1771
     27 C19         7.9450    0.2781   -2.7573 C.2       1 <0>         0.4910
     28 O2          8.8913   -0.0876   -2.0810 O.co2     1 <0>        -0.6975
     29 O3          7.8745   -0.0430   -3.9313 O.co2     1 <0>        -0.7195
     30 C20         6.4748    2.6012    1.3685 C.2       1 <0>         0.4982
     31 O4          6.1458    1.8742    2.2903 O.co2     1 <0>        -0.6987
     32 O5          7.1137    3.6157    1.5903 O.co2     1 <0>        -0.7007
     33 H1         -0.9598    1.9054    0.0260 H         1 <0>         0.1240
     34 H2          1.1508    3.1682    0.0077 H         1 <0>         0.1342
     35 H3          3.3358   -0.5219   -0.0330 H         1 <0>         0.1297
     36 H4          1.2138   -1.7656   -0.0191 H         1 <0>         0.1244
     37 H5         -1.1489   -1.7256    0.5176 H         1 <0>         0.0744
     38 H6         -2.0557   -0.1941    0.5345 H         1 <0>         0.0740
     39 H7         -1.8929   -0.0704   -1.9367 H         1 <0>         0.0920
     40 H8         -0.9861   -1.6019   -1.9536 H         1 <0>         0.0917
     41 H9         -4.2482   -0.0285   -1.2230 H         1 <0>         0.1822
     42 H10        -7.7471   -6.7457   -1.5613 H         1 <0>         0.4149
     43 H11        -8.5593   -5.2831   -1.4066 H         1 <0>         0.4176
     44 H12        -2.1976   -5.5349   -1.7535 H         1 <0>         0.4282
     45 H13        -3.1091   -6.9449   -1.8153 H         1 <0>         0.4149
     46 H14         4.8421    0.5294   -0.0416 H         1 <0>         0.3914
     47 H15         5.9699    3.1583   -0.6287 H         1 <0>         0.0782
     48 H16         8.1462    1.9034   -0.5958 H         1 <0>         0.0728
     49 H17         7.2523    0.4333   -0.1400 H         1 <0>         0.0602
     50 H18         5.9072    0.6076   -2.2159 H         1 <0>         0.0510
     51 H19         6.8012    2.0777   -2.6717 H         1 <0>         0.0528
@<TRIPOS>BOND
     1    1    6 ar
     2    1    2 ar
     3    1   33 1
     4    2    3 ar
     5    2   34 1
     6    3    4 ar
     7    3   21 1
     8    4    5 ar
     9    4   35 1
    10    5    6 ar
    11    5   36 1
    12    6    7 1
    13    7    8 1
    14    7   37 1
    15    7   38 1
    16    8    9 1
    17    8   39 1
    18    8   40 1
    19    9   14 ar
    20    9   10 ar
    21   10   11 ar
    22   10   41 1
    23   11   12 ar
    24   12   18 ar
    25   12   13 ar
    26   13   14 ar
    27   13   15 ar
    28   15   16 ar
    29   15   20 1
    30   16   17 ar
    31   17   18 ar
    32   17   19 1
    33   19   42 1
    34   19   43 1
    35   20   44 1
    36   20   45 1
    37   21   22 2
    38   21   23 am
    39   23   24 1
    40   23   46 1
    41   24   25 1
    42   24   30 1
    43   24   47 1
    44   25   26 1
    45   25   48 1
    46   25   49 1
    47   26   27 1
    48   26   50 1
    49   26   51 1
    50   27   28 2
    51   27   29 1
    52   30   31 2
    53   30   32 1
@<TRIPOS>MOLECULE
CHEMBL11191__1
   51    53     0     0     0
SMALL
USER_CHARGES

@<TRIPOS>ATOM
      1 C1         -0.0167    1.3794    0.0096 C.ar      1 <0>        -0.1262
      2 C2          1.1667    2.0884    0.0021 C.ar      1 <0>        -0.0647
      3 C3          2.3848    1.4070   -0.0132 C.ar      1 <0>        -0.1059
      4 C4          2.3966    0.0113   -0.0208 C.ar      1 <0>        -0.0839
      5 C5          1.2061   -0.6856   -0.0132 C.ar      1 <0>        -0.1206
      6 C6          0.0021   -0.0041    0.0020 C.ar      1 <0>        -0.0807
      7 C7         -1.2946   -0.7719    0.0103 C.3       1 <0>        -0.0685
      8 C8         -1.7472   -1.0241   -1.4293 C.3       1 <0>        -0.0601
      9 C9         -3.0439   -1.7919   -1.4210 C.ar      1 <0>         0.0602
     10 C10        -4.2522   -1.1053   -1.3060 C.ar      1 <0>         0.1452
     11 N1         -5.3973   -1.7539   -1.2968 N.ar      1 <0>        -0.4421
     12 C11        -5.4012   -3.0853   -1.3990 C.ar      1 <0>         0.3641
     13 C12        -4.1703   -3.7781   -1.5157 C.ar      1 <0>        -0.0872
     14 N2         -3.0251   -3.1035   -1.5279 N.ar      1 <0>        -0.3803
     15 C13        -4.2151   -5.2372   -1.6262 C.ar      1 <0>         0.5428
     16 N3         -5.4057   -5.8202   -1.6101 N.ar      1 <0>        -0.6312
     17 C14        -6.5218   -5.1069   -1.4976 C.ar      1 <0>         0.6351
     18 N4         -6.5377   -3.7928   -1.3953 N.ar      1 <0>        -0.6030
     19 N5         -7.7294   -5.7786   -1.4875 N.pl3     1 <0>        -0.8115
     20 N6         -3.0600   -5.9788   -1.7432 N.pl3     1 <0>        -0.7911
     21 C15         3.6569    2.1603   -0.0218 C.2       1 <0>         0.5492
     22 O1          3.6435    3.3757   -0.0155 O.2       1 <0>        -0.5542
     23 N7          4.8314    1.4994   -0.0366 N.am      1 <0>        -0.6754
     24 C16         6.0919    2.2459   -0.0451 C.3       1 <0>         0.0723
     25 C17         7.2027    1.3778    0.5494 C.3       1 <0>        -0.0804
     26 C18         6.9032    1.1060    2.0250 C.3       1 <0>        -0.1779
     27 C19         7.9973    0.2510    2.6105 C.2       1 <0>         0.4908
     28 O2          8.9302   -0.1078    1.9123 O.co2     1 <0>        -0.6971
     29 O3          7.9496   -0.0820    3.7824 O.co2     1 <0>        -0.7202
     30 C20         6.4472    2.6155   -1.4622 C.2       1 <0>         0.4958
     31 O4          5.7154    2.2860   -2.3799 O.co2     1 <0>        -0.6970
     32 O5          7.4666    3.2441   -1.6909 O.co2     1 <0>        -0.6996
     33 H1         -0.9598    1.9054    0.0260 H         1 <0>         0.1236
     34 H2          1.1508    3.1682    0.0077 H         1 <0>         0.1339
     35 H3          3.3358   -0.5219   -0.0330 H         1 <0>         0.1288
     36 H4          1.2138   -1.7656   -0.0191 H         1 <0>         0.1238
     37 H5         -1.1489   -1.7256    0.5176 H         1 <0>         0.0742
     38 H6         -2.0557   -0.1941    0.5345 H         1 <0>         0.0738
     39 H7         -1.8929   -0.0704   -1.9367 H         1 <0>         0.0922
     40 H8         -0.9861   -1.6019   -1.9536 H         1 <0>         0.0915
     41 H9         -4.2482   -0.0285   -1.2230 H         1 <0>         0.1823
     42 H10        -7.7471   -6.7457   -1.5613 H         1 <0>         0.4149
     43 H11        -8.5593   -5.2831   -1.4066 H         1 <0>         0.4176
     44 H12        -2.1976   -5.5349   -1.7535 H         1 <0>         0.4281
     45 H13        -3.1091   -6.9449   -1.8153 H         1 <0>         0.4149
     46 H14         4.8421    0.5294   -0.0416 H         1 <0>         0.3892
     47 H15         5.9814    3.1523    0.5501 H         1 <0>         0.0782
     48 H16         7.2537    0.4325    0.0090 H         1 <0>         0.0550
     49 H17         8.1565    1.8981    0.4621 H         1 <0>         0.0793
     50 H18         6.8522    2.0513    2.5654 H         1 <0>         0.0523
     51 H19         5.9494    0.5857    2.1123 H         1 <0>         0.0500
@<TRIPOS>BOND
     1    1    6 ar
     2    1    2 ar
     3    1   33 1
     4    2    3 ar
     5    2   34 1
     6    3    4 ar
     7    3   21 1
     8    4    5 ar
     9    4   35 1
    10    5    6 ar
    11    5   36 1
    12    6    7 1
    13    7    8 1
    14    7   37 1
    15    7   38 1
    16    8    9 1
    17    8   39 1
    18    8   40 1
    19    9   14 ar
    20    9   10 ar
    21   10   11 ar
    22   10   41 1
    23   11   12 ar
    24   12   18 ar
    25   12   13 ar
    26   13   14 ar
    27   13   15 ar
    28   15   16 ar
    29   15   20 1
    30   16   17 ar
    31   17   18 ar
    32   17   19 1
    33   19   42 1
    34   19   43 1
    35   20   44 1
    36   20   45 1
    37   21   22 2
    38   21   23 am
    39   23   24 1
    40   23   46 1
    41   24   25 1
    42   24   30 1
    43   24   47 1
    44   25   26 1
    45   25   48 1
    46   25   49 1
    47   26   27 1
    48   26   50 1
    49   26   51 1
    50   27   28 2
    51   27   29 1
    52   30   31 2
    53   30   32 1
@<TRIPOS>MOLECULE
CHEMBL341703
   37    39     0     0     0
SMALL
USER_CHARGES

@<TRIPOS>ATOM
      1 C1         -0.3922    0.6001    3.1680 C.ar      1 <0>        -0.1152
      2 C2         -0.0853   -0.1862    2.0733 C.ar      1 <0>        -0.1156
      3 C3          1.1153   -0.8700    2.0282 C.ar      1 <0>        -0.1159
      4 C4          2.0091   -0.7671    3.0777 C.ar      1 <0>        -0.0985
      5 C5          1.7026    0.0199    4.1720 C.ar      1 <0>        -0.1169
      6 C6          0.5014    0.7026    4.2177 C.ar      1 <0>        -0.1154
      7 C7          3.3175   -1.5133    3.0290 C.3       1 <0>        -0.0822
      8 C8          4.3824   -0.6332    2.3716 C.3       1 <0>        -0.1022
      9 C9          5.6908   -1.3794    2.3229 C.ar      1 <0>         0.0119
     10 C10         5.8188   -2.5837    2.9517 C.ar      1 <0>        -0.1326
     11 C11         7.0203   -3.2845    2.9151 C.ar      1 <0>        -0.0099
     12 C12         8.1030   -2.7882    2.2510 C.ar      1 <0>        -0.1554
     13 C13         8.0062   -1.5542    1.5945 C.ar      1 <0>         0.2026
     14 C14         6.7807   -0.8454    1.6282 C.ar      1 <0>        -0.1896
     15 C15         6.7049    0.3986    0.9524 C.ar      1 <0>         0.5703
     16 N1          7.7825    0.8352    0.3175 N.ar      1 <0>        -0.5837
     17 C16         8.9131    0.1342    0.3067 C.ar      1 <0>         0.6853
     18 N2          9.0419   -1.0225    0.9278 N.ar      1 <0>        -0.5784
     19 N3         10.0027    0.6450   -0.3750 N.pl3     1 <0>        -0.7874
     20 N4          5.5396    1.1347    0.9554 N.pl3     1 <0>        -0.8086
     21 H1         -1.3282    1.1379    3.2012 H         1 <0>         0.1252
     22 H2         -0.7836   -0.2666    1.2534 H         1 <0>         0.1250
     23 H3          1.3547   -1.4848    1.1733 H         1 <0>         0.1215
     24 H4          2.4007    0.1000    4.9921 H         1 <0>         0.1221
     25 H5          0.2618    1.3171    5.0729 H         1 <0>         0.1252
     26 H6          3.6297   -1.7658    4.0424 H         1 <0>         0.0846
     27 H7          3.1929   -2.4276    2.4488 H         1 <0>         0.0849
     28 H8          4.0702   -0.3807    1.3583 H         1 <0>         0.1057
     29 H9          4.5069    0.2811    2.9519 H         1 <0>         0.0950
     30 H10         4.9763   -2.9983    3.4852 H         1 <0>         0.1566
     31 H11         7.0966   -4.2358    3.4207 H         1 <0>         0.1568
     32 H12         9.0296   -3.3427    2.2316 H         1 <0>         0.1571
     33 H13         9.9326    1.4977   -0.8321 H         1 <0>         0.4452
     34 H14        10.8370    0.1506   -0.3960 H         1 <0>         0.4308
     35 H15         5.0151    1.2092    1.7679 H         1 <0>         0.4332
     36 H16         5.2440    1.5782    0.1449 H         1 <0>         0.4279
     37 H17         9.8870   -1.4972    0.8922 H         1 <0>         0.4406
@<TRIPOS>BOND
     1    1    6 ar
     2    1    2 ar
     3    1   21 1
     4    2    3 ar
     5    2   22 1
     6    3    4 ar
     7    3   23 1
     8    4    5 ar
     9    4    7 1
    10    5    6 ar
    11    5   24 1
    12    6   25 1
    13    7    8 1
    14    7   26 1
    15    7   27 1
    16    8    9 1
    17    8   28 1
    18    8   29 1
    19    9   14 ar
    20    9   10 ar
    21   10   11 ar
    22   10   30 1
    23   11   12 ar
    24   11   31 1
    25   12   13 ar
    26   12   32 1
    27   13   18 ar
    28   13   14 ar
    29   14   15 ar
    30   15   16 ar
    31   15   20 1
    32   16   17 ar
    33   17   18 ar
    34   17   19 1
    35   18   37 1
    36   19   33 1
    37   19   34 1
    38   20   35 1
    39   20   36 1
@<TRIPOS>MOLECULE
CHEMBL75944
   41    44     0     0     0
SMALL
USER_CHARGES

@<TRIPOS>ATOM
      1 C1          0.6697    1.5424    0.7653 C.ar      1 <0>        -0.1306
      2 C2          1.9131    2.1591    0.7314 C.ar      1 <0>        -0.0799
      3 C3          3.0622    1.4133    0.5884 C.ar      1 <0>        -0.1276
      4 C4          2.9802    0.0294    0.4772 C.ar      1 <0>         0.1097
      5 C5          1.7163   -0.5928    0.5125 C.ar      1 <0>        -0.0970
      6 C6          0.5650    0.1850    0.6576 C.ar      1 <0>        -0.0703
      7 C7          1.9741   -2.0195    0.3750 C.2       1 <0>        -0.1629
      8 C8          3.3091   -2.1821    0.2674 C.2       1 <0>         0.0234
      9 N1          3.9229   -0.9656    0.3280 N.pl3     1 <0>        -0.5692
     10 H1          4.8807   -0.8217    0.2741 H         1 <0>         0.4227
     11 C9          3.9587   -3.5362    0.1028 C.3       1 <0>         0.0761
     12 N2          2.9339   -4.4967   -0.3350 N.4       1 <0>        -0.3840
     13 C10         1.7813   -4.4609    0.5749 C.3       1 <0>        -0.0099
     14 C11         0.9919   -3.1628    0.3518 C.3       1 <0>        -0.0687
     15 C12         3.5064   -5.8495   -0.3419 C.3       1 <0>         0.0685
     16 C13         4.5888   -5.9317   -1.3873 C.ar      1 <0>        -0.4042
     17 C14         5.9220   -5.8903   -1.0284 C.ar      1 <0>         0.2621
     18 N3          6.8496   -5.9652   -1.9713 N.ar      1 <0>        -0.5931
     19 C15         6.5151   -6.0788   -3.2484 C.ar      1 <0>         0.6307
     20 N4          5.2488   -6.1215   -3.6338 N.ar      1 <0>        -0.6194
     21 C16         4.2667   -6.0572   -2.7402 C.ar      1 <0>         0.5077
     22 N5          2.9430   -6.1079   -3.1458 N.pl3     1 <0>        -0.8353
     23 N6          7.5140   -6.1542   -4.2033 N.pl3     1 <0>        -0.7991
     24 H2         -0.2218    2.1407    0.8822 H         1 <0>         0.1324
     25 H3          1.9799    3.2335    0.8177 H         1 <0>         0.1357
     26 H4          4.0249    1.9021    0.5622 H         1 <0>         0.1281
     27 H5         -0.4063   -0.2865    0.6851 H         1 <0>         0.1274
     28 H6          4.7474   -3.4752   -0.6471 H         1 <0>         0.1356
     29 H7          4.3795   -3.8586    1.0552 H         1 <0>         0.1472
     30 H8          1.1361   -5.3169    0.3776 H         1 <0>         0.1401
     31 H9          2.1315   -4.5003    1.6064 H         1 <0>         0.1366
     32 H10         0.2576   -3.0353    1.1472 H         1 <0>         0.1224
     33 H11         0.4887   -3.1979   -0.6145 H         1 <0>         0.0986
     34 H12         3.9302   -6.0697    0.6379 H         1 <0>         0.1442
     35 H13         2.7246   -6.5738   -0.5706 H         1 <0>         0.1360
     36 H14         6.2052   -5.7976    0.0097 H         1 <0>         0.1749
     37 H15         2.2324   -5.9694   -2.5003 H         1 <0>         0.4030
     38 H16         2.7269   -6.2820   -4.0753 H         1 <0>         0.4219
     39 H17         8.4454   -6.1237   -3.9344 H         1 <0>         0.4247
     40 H18         7.2826   -6.2375   -5.1416 H         1 <0>         0.4227
     41 H19         2.6307   -4.2599   -1.2678 H         1 <0>         0.4188
@<TRIPOS>BOND
     1    1    6 ar
     2    1    2 ar
     3    1   24 1
     4    2    3 ar
     5    2   25 1
     6    3    4 ar
     7    3   26 1
     8    4    9 1
     9    4    5 ar
    10    5    6 ar
    11    5    7 1
    12    6   27 1
    13    7   14 1
    14    7    8 2
    15    8    9 1
    16    8   11 1
    17    9   10 1
    18   11   12 1
    19   11   28 1
    20   11   29 1
    21   12   13 1
    22   12   15 1
    23   12   41 1
    24   13   14 1
    25   13   30 1
    26   13   31 1
    27   14   32 1
    28   14   33 1
    29   15   16 1
    30   15   34 1
    31   15   35 1
    32   16   21 ar
    33   16   17 ar
    34   17   18 ar
    35   17   36 1
    36   18   19 ar
    37   19   20 ar
    38   19   23 1
    39   20   21 ar
    40   21   22 1
    41   22   37 1
    42   22   38 1
    43   23   39 1
    44   23   40 1
@<TRIPOS>MOLECULE
CHEMBL75944__1
   41    44     0     0     0
SMALL
USER_CHARGES

@<TRIPOS>ATOM
      1 C1          0.3797    1.4923    0.4469 C.ar      1 <0>        -0.1402
      2 C2          1.6024    2.1350    0.5866 C.ar      1 <0>        -0.0920
      3 C3          2.7766    1.4151    0.5918 C.ar      1 <0>        -0.1310
      4 C4          2.7410    0.0314    0.4568 C.ar      1 <0>         0.0999
      5 C5          1.4981   -0.6171    0.3157 C.ar      1 <0>        -0.1003
      6 C6          0.3206    0.1344    0.3126 C.ar      1 <0>        -0.0708
      7 C7          1.8032   -2.0370    0.1996 C.2       1 <0>        -0.1511
      8 C8          3.1434   -2.1701    0.2715 C.2       1 <0>         0.0570
      9 N1          3.7169   -0.9419    0.4258 N.pl3     1 <0>        -0.5863
     10 H1          4.6699   -0.7778    0.5018 H         1 <0>         0.4128
     11 C9          3.8422   -3.5073    0.1848 C.3       1 <0>         0.1265
     12 N2          2.8990   -4.4890   -0.3749 N.3       1 <0>        -0.5374
     13 C10         1.6226   -4.4853    0.3535 C.3       1 <0>         0.0521
     14 C11         0.8540   -3.1958    0.0314 C.3       1 <0>        -0.0423
     15 C12         3.4895   -5.8340   -0.3955 C.3       1 <0>         0.0970
     16 C13         4.4958   -5.9237   -1.5136 C.ar      1 <0>        -0.2217
     17 C14         5.8510   -5.9098   -1.2470 C.ar      1 <0>         0.2044
     18 N3          6.7102   -5.9907   -2.2522 N.ar      1 <0>        -0.5728
     19 C15         6.2868   -6.0841   -3.5043 C.ar      1 <0>         0.6636
     20 N4          4.9964   -6.1003   -3.8020 N.ar      1 <0>        -0.5763
     21 C16         4.0793   -6.0288   -2.8424 C.ar      1 <0>         0.5457
     22 N5          2.7303   -6.0519   -3.1563 N.pl3     1 <0>        -0.7652
     23 N6          7.2162   -6.1662   -4.5265 N.pl3     1 <0>        -0.7923
     24 H2         -0.5325    2.0705    0.4490 H         1 <0>         0.1264
     25 H3          1.6331    3.2094    0.6918 H         1 <0>         0.1291
     26 H4          3.7230    1.9241    0.7002 H         1 <0>         0.1209
     27 H5         -0.6347   -0.3573    0.2038 H         1 <0>         0.1228
     28 H6          4.7140   -3.4246   -0.4642 H         1 <0>         0.0810
     29 H7          4.1538   -3.8239    1.1802 H         1 <0>         0.0625
     30 H8          1.0287   -5.3476    0.0505 H         1 <0>         0.0880
     31 H9          1.8155   -4.5353    1.4251 H         1 <0>         0.0524
     32 H10         0.0134   -3.0864    0.7166 H         1 <0>         0.0836
     33 H11         0.4915   -3.2295   -0.9960 H         1 <0>         0.0799
     34 H12         3.9851   -6.0278    0.5558 H         1 <0>         0.0754
     35 H13         2.7041   -6.5732   -0.5532 H         1 <0>         0.1065
     36 H14         6.2064   -5.8333   -0.2301 H         1 <0>         0.2114
     37 H15         2.0680   -5.9180   -2.4604 H         1 <0>         0.4349
     38 H16         2.4479   -6.2018   -4.0721 H         1 <0>         0.4270
     39 H17         8.1643   -6.1550   -4.3220 H         1 <0>         0.4302
     40 H18         6.9194   -6.2349   -5.4474 H         1 <0>         0.4450
     41 H19         7.6627   -5.9812   -2.0691 H         1 <0>         0.4439
@<TRIPOS>BOND
     1    1    6 ar
     2    1    2 ar
     3    1   24 1
     4    2    3 ar
     5    2   25 1
     6    3    4 ar
     7    3   26 1
     8    4    9 1
     9    4    5 ar
    10    5    6 ar
    11    5    7 1
    12    6   27 1
    13    7   14 1
    14    7    8 2
    15    8    9 1
    16    8   11 1
    17    9   10 1
    18   11   12 1
    19   11   28 1
    20   11   29 1
    21   12   13 1
    22   12   15 1
    23   13   14 1
    24   13   30 1
    25   13   31 1
    26   14   32 1
    27   14   33 1
    28   15   16 1
    29   15   34 1
    30   15   35 1
    31   16   21 ar
    32   16   17 ar
    33   17   18 ar
    34   17   36 1
    35   18   19 ar
    36   18   41 1
    37   19   20 ar
    38   19   23 1
    39   20   21 ar
    40   21   22 1
    41   22   37 1
    42   22   38 1
    43   23   39 1
    44   23   40 1
@<TRIPOS>MOLECULE
CHEMBL75944__2
   42    45     0     0     0
SMALL
USER_CHARGES

@<TRIPOS>ATOM
      1 C1          0.6697    1.5424    0.7653 C.ar      1 <0>        -0.1249
      2 C2          1.9131    2.1591    0.7314 C.ar      1 <0>        -0.0713
      3 C3          3.0622    1.4133    0.5883 C.ar      1 <0>        -0.1298
      4 C4          2.9802    0.0294    0.4772 C.ar      1 <0>         0.1132
      5 C5          1.7163   -0.5928    0.5125 C.ar      1 <0>        -0.1002
      6 C6          0.5650    0.1850    0.6576 C.ar      1 <0>        -0.0696
      7 C7          1.9741   -2.0195    0.3750 C.2       1 <0>        -0.1511
      8 C8          3.3091   -2.1821    0.2674 C.2       1 <0>         0.0036
      9 N1          3.9229   -0.9656    0.3280 N.pl3     1 <0>        -0.5695
     10 H1          4.8807   -0.8217    0.2741 H         1 <0>         0.4214
     11 C9          3.9587   -3.5362    0.1028 C.3       1 <0>         0.0748
     12 N2          2.9339   -4.4967   -0.3350 N.4       1 <0>        -0.3881
     13 C10         1.7813   -4.4609    0.5749 C.3       1 <0>        -0.0104
     14 C11         0.9919   -3.1628    0.3518 C.3       1 <0>        -0.0720
     15 C12         3.5064   -5.8495   -0.3419 C.3       1 <0>         0.0534
     16 C13         4.5888   -5.9317   -1.3873 C.ar      1 <0>        -0.3234
     17 C14         5.9220   -5.8903   -1.0284 C.ar      1 <0>         0.2733
     18 N3          6.8496   -5.9652   -1.9713 N.ar      1 <0>        -0.5694
     19 C15         6.5151   -6.0784   -3.2484 C.ar      1 <0>         0.6746
     20 N4          5.2488   -6.1211   -3.6338 N.ar      1 <0>        -0.5596
     21 C16         4.2667   -6.0572   -2.7402 C.ar      1 <0>         0.5436
     22 N5          2.9430   -6.1079   -3.1458 N.pl3     1 <0>        -0.7808
     23 N6          7.5139   -6.1533   -4.2034 N.pl3     1 <0>        -0.7655
     24 H2         -0.2218    2.1407    0.8822 H         1 <0>         0.1367
     25 H3          1.9800    3.2336    0.8177 H         1 <0>         0.1398
     26 H4          4.0249    1.9021    0.5622 H         1 <0>         0.1301
     27 H5         -0.4063   -0.2865    0.6851 H         1 <0>         0.1300
     28 H6          4.7474   -3.4752   -0.6471 H         1 <0>         0.1274
     29 H7          4.3796   -3.8586    1.0552 H         1 <0>         0.1519
     30 H8          1.1361   -5.3169    0.3776 H         1 <0>         0.1470
     31 H9          2.1315   -4.5003    1.6064 H         1 <0>         0.1441
     32 H10         0.2576   -3.0353    1.1472 H         1 <0>         0.1301
     33 H11         0.4887   -3.1979   -0.6145 H         1 <0>         0.1027
     34 H12         3.9302   -6.0697    0.6379 H         1 <0>         0.1661
     35 H13         2.7246   -6.5738   -0.5706 H         1 <0>         0.1594
     36 H14         6.2052   -5.7976    0.0097 H         1 <0>         0.2275
     37 H15         2.2324   -5.9694   -2.5003 H         1 <0>         0.4223
     38 H16         2.7269   -6.2820   -4.0753 H         1 <0>         0.4428
     39 H17         8.4454   -6.1229   -3.9344 H         1 <0>         0.4393
     40 H18         7.2825   -6.2363   -5.1417 H         1 <0>         0.4537
     41 H19         2.6307   -4.2599   -1.2678 H         1 <0>         0.4206
     42 H20         7.7870   -5.9365   -1.7233 H         1 <0>         0.4563
@<TRIPOS>BOND
     1    1    6 ar
     2    1    2 ar
     3    1   24 1
     4    2    3 ar
     5    2   25 1
     6    3    4 ar
     7    3   26 1
     8    4    9 1
     9    4    5 ar
    10    5    6 ar
    11    5    7 1
    12    6   27 1
    13    7   14 1
    14    7    8 2
    15    8    9 1
    16    8   11 1
    17    9   10 1
    18   11   12 1
    19   11   28 1
    20   11   29 1
    21   12   13 1
    22   12   15 1
    23   12   41 1
    24   13   14 1
    25   13   30 1
    26   13   31 1
    27   14   32 1
    28   14   33 1
    29   15   16 1
    30   15   34 1
    31   15   35 1
    32   16   21 ar
    33   16   17 ar
    34   17   18 ar
    35   17   36 1
    36   18   19 ar
    37   18   42 1
    38   19   20 ar
    39   19   23 1
    40   20   21 ar
    41   21   22 1
    42   22   37 1
    43   22   38 1
    44   23   39 1
    45   23   40 1
@<TRIPOS>MOLECULE
CHEMBL328827
   45    48     0     0     0
SMALL
USER_CHARGES

@<TRIPOS>ATOM
      1 C1          0.6412   -1.9473    3.7537 C.ar      1 <0>         0.0018
      2 C2          1.9078   -1.8699    4.2580 C.ar      1 <0>        -0.1618
      3 C3          3.0042   -1.8207    3.3887 C.ar      1 <0>         0.2148
      4 C4          2.7858   -1.8520    1.9899 C.ar      1 <0>        -0.1783
      5 C5          1.4727   -1.9319    1.4933 C.ar      1 <0>        -0.0262
      6 C6          0.4144   -1.9786    2.3849 C.ar      1 <0>        -0.1366
      7 S1          1.1774   -1.9726   -0.2434 S.3       1 <0>         0.0681
      8 C7         -0.5597   -2.2366   -0.3744 C.ar      1 <0>        -0.2488
      9 C8         -1.4178   -1.1540   -0.5213 C.ar      1 <0>        -0.0043
     10 C9         -2.7788   -1.3611   -0.6244 C.ar      1 <0>        -0.2091
     11 C10        -3.2903   -2.6517   -0.5808 C.ar      1 <0>         0.2668
     12 C11        -2.4325   -3.7341   -0.4339 C.ar      1 <0>        -0.2086
     13 C12        -1.0710   -3.5278   -0.3365 C.ar      1 <0>        -0.0030
     14 N1         -4.6701   -2.8614   -0.6844 N.pl3     1 <0>        -0.6204
     15 C13        -5.2472   -4.2041   -0.5132 C.3       1 <0>         0.0791
     16 C14        -6.3934   -4.1121    0.5006 C.3       1 <0>         0.0458
     17 O1         -7.2964   -3.0796    0.0977 O.3       1 <0>        -0.3743
     18 C15        -6.7164   -1.7733    0.0687 C.3       1 <0>         0.0453
     19 C16        -5.5873   -1.7445   -0.9616 C.3       1 <0>         0.0784
     20 C17         3.9090   -1.8016    1.1330 C.ar      1 <0>         0.5692
     21 N2          5.1150   -1.7274    1.6793 N.ar      1 <0>        -0.5807
     22 C18         5.2776   -1.7003    2.9990 C.ar      1 <0>         0.6852
     23 N3          4.2648   -1.7447    3.8435 N.ar      1 <0>        -0.5792
     24 N4          6.5615   -1.6222    3.5072 N.pl3     1 <0>        -0.7881
     25 N5          3.7544   -1.8294   -0.2370 N.pl3     1 <0>        -0.7952
     26 H1         -0.1983   -1.9894    4.4318 H         1 <0>         0.1551
     27 H2          2.0636   -1.8462    5.3264 H         1 <0>         0.1569
     28 H3         -0.5972   -2.0400    2.0116 H         1 <0>         0.1499
     29 H4         -1.0202   -0.1504   -0.5544 H         1 <0>         0.1341
     30 H5         -3.4460   -0.5195   -0.7386 H         1 <0>         0.1347
     31 H6         -2.8304   -4.7376   -0.3997 H         1 <0>         0.1342
     32 H7         -0.4036   -4.3698   -0.2268 H         1 <0>         0.1327
     33 H8         -5.6299   -4.5637   -1.4684 H         1 <0>         0.0804
     34 H9         -4.4832   -4.8875   -0.1426 H         1 <0>         0.0957
     35 H10        -6.9227   -5.0642    0.5390 H         1 <0>         0.1109
     36 H11        -5.9900   -3.8789    1.4860 H         1 <0>         0.0570
     37 H12        -7.4781   -1.0427   -0.2036 H         1 <0>         0.1112
     38 H13        -6.3142   -1.5316    1.0525 H         1 <0>         0.0568
     39 H14        -5.0484   -0.8000   -0.8878 H         1 <0>         0.0966
     40 H15        -6.0049   -1.8523   -1.9627 H         1 <0>         0.0806
     41 H16         7.3206   -1.5885    2.9042 H         1 <0>         0.4450
     42 H17         6.7029   -1.6012    4.4666 H         1 <0>         0.4304
     43 H18         3.0736   -1.2827   -0.6594 H         1 <0>         0.4258
     44 H19         4.3265   -2.3957   -0.7782 H         1 <0>         0.4315
     45 H20         4.4322   -1.7219    4.7987 H         1 <0>         0.4407
@<TRIPOS>BOND
     1    1    6 ar
     2    1    2 ar
     3    1   26 1
     4    2    3 ar
     5    2   27 1
     6    3   23 ar
     7    3    4 ar
     8    4    5 ar
     9    4   20 ar
    10    5    6 ar
    11    5    7 1
    12    6   28 1
    13    7    8 1
    14    8   13 ar
    15    8    9 ar
    16    9   10 ar
    17    9   29 1
    18   10   11 ar
    19   10   30 1
    20   11   12 ar
    21   11   14 1
    22   12   13 ar
    23   12   31 1
    24   13   32 1
    25   14   19 1
    26   14   15 1
    27   15   16 1
    28   15   33 1
    29   15   34 1
    30   16   17 1
    31   16   35 1
    32   16   36 1
    33   17   18 1
    34   18   19 1
    35   18   37 1
    36   18   38 1
    37   19   39 1
    38   19   40 1
    39   20   21 ar
    40   20   25 1
    41   21   22 ar
    42   22   23 ar
    43   22   24 1
    44   23   45 1
    45   24   41 1
    46   24   42 1
    47   25   43 1
    48   25   44 1
@<TRIPOS>MOLECULE
CHEMBL328827__1
   44    47     0     0     0
SMALL
USER_CHARGES

@<TRIPOS>ATOM
      1 C1          0.6412   -1.9473    3.7537 C.ar      1 <0>        -0.0457
      2 C2          1.9078   -1.8699    4.2580 C.ar      1 <0>        -0.1364
      3 C3          3.0042   -1.8207    3.3887 C.ar      1 <0>         0.2422
      4 C4          2.7858   -1.8520    1.9899 C.ar      1 <0>        -0.2099
      5 C5          1.4727   -1.9319    1.4933 C.ar      1 <0>        -0.0357
      6 C6          0.4144   -1.9786    2.3849 C.ar      1 <0>        -0.1606
      7 S1          1.1774   -1.9726   -0.2434 S.3       1 <0>         0.0207
      8 C7         -0.5597   -2.2366   -0.3744 C.ar      1 <0>        -0.2221
      9 C8         -1.4178   -1.1540   -0.5213 C.ar      1 <0>        -0.0118
     10 C9         -2.7788   -1.3611   -0.6244 C.ar      1 <0>        -0.2092
     11 C10        -3.2903   -2.6517   -0.5808 C.ar      1 <0>         0.2514
     12 C11        -2.4325   -3.7341   -0.4339 C.ar      1 <0>        -0.2084
     13 C12        -1.0710   -3.5278   -0.3365 C.ar      1 <0>        -0.0092
     14 N1         -4.6701   -2.8614   -0.6844 N.pl3     1 <0>        -0.6281
     15 C13        -5.2472   -4.2041   -0.5132 C.3       1 <0>         0.0830
     16 C14        -6.3934   -4.1121    0.5006 C.3       1 <0>         0.0456
     17 O1         -7.2964   -3.0796    0.0977 O.3       1 <0>        -0.3778
     18 C15        -6.7164   -1.7733    0.0687 C.3       1 <0>         0.0453
     19 C16        -5.5873   -1.7445   -0.9616 C.3       1 <0>         0.0824
     20 C17         3.9090   -1.8016    1.1330 C.ar      1 <0>         0.5096
     21 N2          5.1150   -1.7274    1.6793 N.ar      1 <0>        -0.6124
     22 C18         5.2776   -1.7003    2.9990 C.ar      1 <0>         0.6035
     23 N3          4.2648   -1.7447    3.8435 N.ar      1 <0>        -0.5984
     24 N4          6.5615   -1.6222    3.5072 N.pl3     1 <0>        -0.8189
     25 N5          3.7544   -1.8294   -0.2370 N.pl3     1 <0>        -0.8339
     26 H1         -0.1983   -1.9894    4.4318 H         1 <0>         0.1311
     27 H2          2.0636   -1.8462    5.3264 H         1 <0>         0.1378
     28 H3         -0.5972   -2.0400    2.0116 H         1 <0>         0.1278
     29 H4         -1.0202   -0.1504   -0.5544 H         1 <0>         0.1311
     30 H5         -3.4460   -0.5195   -0.7386 H         1 <0>         0.1287
     31 H6         -2.8304   -4.7376   -0.3997 H         1 <0>         0.1285
     32 H7         -0.4036   -4.3698   -0.2268 H         1 <0>         0.1304
     33 H8         -5.6299   -4.5637   -1.4684 H         1 <0>         0.0748
     34 H9         -4.4832   -4.8875   -0.1426 H         1 <0>         0.0947
     35 H10        -6.9227   -5.0642    0.5390 H         1 <0>         0.1076
     36 H11        -5.9900   -3.8789    1.4860 H         1 <0>         0.0569
     37 H12        -7.4781   -1.0427   -0.2036 H         1 <0>         0.1077
     38 H13        -6.3142   -1.5316    1.0525 H         1 <0>         0.0566
     39 H14        -5.0484   -0.8000   -0.8878 H         1 <0>         0.0952
     40 H15        -6.0049   -1.8523   -1.9627 H         1 <0>         0.0748
     41 H16         7.3206   -1.5885    2.9042 H         1 <0>         0.4134
     42 H17         6.7029   -1.6012    4.4666 H         1 <0>         0.4158
     43 H18         3.0736   -1.2827   -0.6594 H         1 <0>         0.4100
     44 H19         4.3265   -2.3957   -0.7782 H         1 <0>         0.4120
@<TRIPOS>BOND
     1    1    6 ar
     2    1    2 ar
     3    1   26 1
     4    2    3 ar
     5    2   27 1
     6    3   23 ar
     7    3    4 ar
     8    4    5 ar
     9    4   20 ar
    10    5    6 ar
    11    5    7 1
    12    6   28 1
    13    7    8 1
    14    8   13 ar
    15    8    9 ar
    16    9   10 ar
    17    9   29 1
    18   10   11 ar
    19   10   30 1
    20   11   12 ar
    21   11   14 1
    22   12   13 ar
    23   12   31 1
    24   13   32 1
    25   14   19 1
    26   14   15 1
    27   15   16 1
    28   15   33 1
    29   15   34 1
    30   16   17 1
    31   16   35 1
    32   16   36 1
    33   17   18 1
    34   18   19 1
    35   18   37 1
    36   18   38 1
    37   19   39 1
    38   19   40 1
    39   20   21 ar
    40   20   25 1
    41   21   22 ar
    42   22   23 ar
    43   22   24 1
    44   24   41 1
    45   24   42 1
    46   25   43 1
    47   25   44 1
@<TRIPOS>MOLECULE
CHEMBL10592
   52    54     0     0     0
SMALL
USER_CHARGES

@<TRIPOS>ATOM
      1 C1         -0.0169    1.3941    0.0097 C.ar      1 <0>        -0.0477
      2 C2          1.1617    2.0943    0.0022 C.ar      1 <0>        -0.1073
      3 C3          2.3773    1.4143   -0.0135 C.ar      1 <0>        -0.0762
      4 C4          2.3993    0.0215   -0.0217 C.ar      1 <0>        -0.1364
      5 C5          1.2239   -0.6840   -0.0138 C.ar      1 <0>        -0.0661
      6 C6          0.0021   -0.0041    0.0020 C.ar      1 <0>        -0.1078
      7 C7         -1.2641   -0.7602    0.0100 C.2       1 <0>         0.5432
      8 O1         -2.3260   -0.1677    0.0234 O.2       1 <0>        -0.5510
      9 N1         -1.2443   -2.1078    0.0026 N.am      1 <0>        -0.6743
     10 C8         -2.5021   -2.8589    0.0106 C.3       1 <0>         0.0733
     11 C9         -2.2640   -4.2460    0.6105 C.3       1 <0>        -0.0827
     12 C10        -1.8678   -4.1043    2.0815 C.3       1 <0>        -0.1772
     13 C11        -1.6333   -5.4707    2.6725 C.2       1 <0>         0.4909
     14 O2         -1.7703   -6.4655    1.9811 O.co2     1 <0>        -0.6971
     15 O3         -1.3065   -5.5812    3.8419 O.co2     1 <0>        -0.7195
     16 C12        -3.0104   -3.0025   -1.4008 C.2       1 <0>         0.4985
     17 O4         -2.2232   -3.0454   -2.3308 O.co2     1 <0>        -0.6984
     18 O5         -4.2089   -3.0757   -1.6127 O.co2     1 <0>        -0.7002
     19 S1          3.8901    2.3177   -0.0237 S.3       1 <0>        -0.1133
     20 C13         5.1692    1.0315   -0.0433 C.3       1 <0>        -0.1083
     21 C14         6.5515    1.6871   -0.0535 C.3       1 <0>        -0.0413
     22 C15         7.6141    0.6186   -0.0698 C.ar      1 <0>         0.0526
     23 C16         8.0182    0.0652   -1.2843 C.ar      1 <0>         0.1484
     24 N2          8.9446   -0.8689   -1.3240 N.ar      1 <0>        -0.4390
     25 C17         9.5036   -1.2909   -0.1872 C.ar      1 <0>         0.3708
     26 C18         9.0893   -0.7251    1.0444 C.ar      1 <0>        -0.0884
     27 N3          8.1555    0.2208    1.0619 N.ar      1 <0>        -0.3755
     28 C19         9.7255   -1.2130    2.2692 C.ar      1 <0>         0.5444
     29 N4         10.6508   -2.1551    2.1498 N.ar      1 <0>        -0.6293
     30 C20        10.9909   -2.6414    0.9603 C.ar      1 <0>         0.6386
     31 N5         10.4500   -2.2377   -0.1720 N.ar      1 <0>        -0.6017
     32 N6         11.9629   -3.6221    0.9081 N.pl3     1 <0>        -0.8087
     33 N7          9.3752   -0.7105    3.5032 N.pl3     1 <0>        -0.7908
     34 H1         -0.9590    1.9219    0.0260 H         1 <0>         0.1414
     35 H2          1.1477    3.1742    0.0081 H         1 <0>         0.1302
     36 H3          3.3433   -0.5031   -0.0346 H         1 <0>         0.1240
     37 H4          1.2415   -1.7638   -0.0205 H         1 <0>         0.1337
     38 H5         -0.3973   -2.5803   -0.0080 H         1 <0>         0.3911
     39 H6         -3.2400   -2.3255    0.6100 H         1 <0>         0.0788
     40 H7         -3.1774   -4.8360    0.5355 H         1 <0>         0.0734
     41 H8         -1.4632   -4.7452    0.0650 H         1 <0>         0.0601
     42 H9         -0.9544   -3.5143    2.1566 H         1 <0>         0.0504
     43 H10        -2.6687   -3.6052    2.6270 H         1 <0>         0.0532
     44 H11         5.0699    0.4068    0.8444 H         1 <0>         0.0930
     45 H12         5.0522    0.4163   -0.9355 H         1 <0>         0.0931
     46 H13         6.6508    2.3118   -0.9412 H         1 <0>         0.0984
     47 H14         6.6685    2.3023    0.8387 H         1 <0>         0.0968
     48 H15         7.5653    0.4068   -2.2033 H         1 <0>         0.1827
     49 H16        12.3778   -3.9379    1.7261 H         1 <0>         0.4159
     50 H17        12.2305   -3.9947    0.0534 H         1 <0>         0.4188
     51 H18         8.6962   -0.0211    3.5712 H         1 <0>         0.4269
     52 H19         9.8076   -1.0460    4.3040 H         1 <0>         0.4156
@<TRIPOS>BOND
     1    1    6 ar
     2    1    2 ar
     3    1   34 1
     4    2    3 ar
     5    2   35 1
     6    3    4 ar
     7    3   19 1
     8    4    5 ar
     9    4   36 1
    10    5    6 ar
    11    5   37 1
    12    6    7 1
    13    7    8 2
    14    7    9 am
    15    9   10 1
    16    9   38 1
    17   10   11 1
    18   10   16 1
    19   10   39 1
    20   11   12 1
    21   11   40 1
    22   11   41 1
    23   12   13 1
    24   12   42 1
    25   12   43 1
    26   13   14 2
    27   13   15 1
    28   16   17 2
    29   16   18 1
    30   19   20 1
    31   20   21 1
    32   20   44 1
    33   20   45 1
    34   21   22 1
    35   21   46 1
    36   21   47 1
    37   22   27 ar
    38   22   23 ar
    39   23   24 ar
    40   23   48 1
    41   24   25 ar
    42   25   31 ar
    43   25   26 ar
    44   26   27 ar
    45   26   28 ar
    46   28   29 ar
    47   28   33 1
    48   29   30 ar
    49   30   31 ar
    50   30   32 1
    51   32   49 1
    52   32   50 1
    53   33   51 1
    54   33   52 1
@<TRIPOS>MOLECULE
CHEMBL10592__1
   52    54     0     0     0
SMALL
USER_CHARGES

@<TRIPOS>ATOM
      1 C1         -0.0169    1.3941    0.0097 C.ar      1 <0>        -0.0481
      2 C2          1.1617    2.0943    0.0022 C.ar      1 <0>        -0.1070
      3 C3          2.3773    1.4143   -0.0135 C.ar      1 <0>        -0.0772
      4 C4          2.3993    0.0215   -0.0217 C.ar      1 <0>        -0.1364
      5 C5          1.2239   -0.6840   -0.0138 C.ar      1 <0>        -0.0672
      6 C6          0.0021   -0.0041    0.0020 C.ar      1 <0>        -0.1051
      7 C7         -1.2641   -0.7602    0.0100 C.2       1 <0>         0.5500
      8 O1         -2.3260   -0.1677    0.0234 O.2       1 <0>        -0.5524
      9 N1         -1.2443   -2.1078    0.0026 N.am      1 <0>        -0.6747
     10 C8         -2.5021   -2.8589    0.0106 C.3       1 <0>         0.0723
     11 C9         -2.2756   -4.2395   -0.6086 C.3       1 <0>        -0.0806
     12 C10        -1.9076   -4.0820   -2.0853 C.3       1 <0>        -0.1780
     13 C11        -1.6845   -5.4418   -2.6953 C.2       1 <0>         0.4907
     14 O2         -1.8084   -6.4441   -2.0122 O.co2     1 <0>        -0.6971
     15 O3         -1.3802   -5.5398   -3.8718 O.co2     1 <0>        -0.7197
     16 C12        -2.9834   -3.0177    1.4298 C.2       1 <0>         0.4959
     17 O4         -2.3358   -2.5471    2.3494 O.co2     1 <0>        -0.6972
     18 O5         -4.0204   -3.6167    1.6585 O.co2     1 <0>        -0.6990
     19 S1          3.8901    2.3177   -0.0237 S.3       1 <0>        -0.1139
     20 C13         5.1692    1.0315   -0.0433 C.3       1 <0>        -0.1081
     21 C14         6.5515    1.6871   -0.0535 C.3       1 <0>        -0.0414
     22 C15         7.6141    0.6186   -0.0698 C.ar      1 <0>         0.0531
     23 C16         8.0182    0.0652   -1.2843 C.ar      1 <0>         0.1487
     24 N2          8.9446   -0.8689   -1.3240 N.ar      1 <0>        -0.4385
     25 C17         9.5036   -1.2909   -0.1872 C.ar      1 <0>         0.3707
     26 C18         9.0893   -0.7251    1.0444 C.ar      1 <0>        -0.0887
     27 N3          8.1555    0.2208    1.0619 N.ar      1 <0>        -0.3760
     28 C19         9.7255   -1.2130    2.2692 C.ar      1 <0>         0.5441
     29 N4         10.6508   -2.1551    2.1498 N.ar      1 <0>        -0.6294
     30 C20        10.9909   -2.6414    0.9603 C.ar      1 <0>         0.6383
     31 N5         10.4500   -2.2377   -0.1720 N.ar      1 <0>        -0.6011
     32 N6         11.9629   -3.6221    0.9081 N.pl3     1 <0>        -0.8088
     33 N7          9.3752   -0.7105    3.5032 N.pl3     1 <0>        -0.7913
     34 H1         -0.9590    1.9219    0.0260 H         1 <0>         0.1412
     35 H2          1.1477    3.1742    0.0081 H         1 <0>         0.1299
     36 H3          3.3433   -0.5031   -0.0346 H         1 <0>         0.1235
     37 H4          1.2415   -1.7638   -0.0205 H         1 <0>         0.1327
     38 H5         -0.3973   -2.5803   -0.0080 H         1 <0>         0.3889
     39 H6         -3.2512   -2.3192   -0.5688 H         1 <0>         0.0790
     40 H7         -1.4646   -4.7444   -0.0839 H         1 <0>         0.0547
     41 H8         -3.1875   -4.8304   -0.5225 H         1 <0>         0.0798
     42 H9         -2.7187   -3.5770   -2.6101 H         1 <0>         0.0527
     43 H10        -0.9957   -3.4911   -2.1715 H         1 <0>         0.0496
     44 H11         5.0699    0.4068    0.8444 H         1 <0>         0.0926
     45 H12         5.0522    0.4163   -0.9355 H         1 <0>         0.0932
     46 H13         6.6508    2.3118   -0.9412 H         1 <0>         0.0985
     47 H14         6.6685    2.3023    0.8387 H         1 <0>         0.0968
     48 H15         7.5653    0.4068   -2.2033 H         1 <0>         0.1830
     49 H16        12.3778   -3.9379    1.7261 H         1 <0>         0.4157
     50 H17        12.2305   -3.9947    0.0534 H         1 <0>         0.4189
     51 H18         8.6962   -0.0211    3.5712 H         1 <0>         0.4269
     52 H19         9.8076   -1.0460    4.3040 H         1 <0>         0.4154
@<TRIPOS>BOND
     1    1    6 ar
     2    1    2 ar
     3    1   34 1
     4    2    3 ar
     5    2   35 1
     6    3    4 ar
     7    3   19 1
     8    4    5 ar
     9    4   36 1
    10    5    6 ar
    11    5   37 1
    12    6    7 1
    13    7    8 2
    14    7    9 am
    15    9   10 1
    16    9   38 1
    17   10   11 1
    18   10   16 1
    19   10   39 1
    20   11   12 1
    21   11   40 1
    22   11   41 1
    23   12   13 1
    24   12   42 1
    25   12   43 1
    26   13   14 2
    27   13   15 1
    28   16   17 2
    29   16   18 1
    30   19   20 1
    31   20   21 1
    32   20   44 1
    33   20   45 1
    34   21   22 1
    35   21   46 1
    36   21   47 1
    37   22   27 ar
    38   22   23 ar
    39   23   24 ar
    40   23   48 1
    41   24   25 ar
    42   25   31 ar
    43   25   26 ar
    44   26   27 ar
    45   26   28 ar
    46   28   29 ar
    47   28   33 1
    48   29   30 ar
    49   30   31 ar
    50   30   32 1
    51   32   49 1
    52   32   50 1
    53   33   51 1
    54   33   52 1
@<TRIPOS>MOLECULE
CHEMBL325333
   30    32     0     0     0
SMALL
USER_CHARGES

@<TRIPOS>ATOM
      1 C1         -0.3699    1.2287   -0.5787 C.3       1 <0>        -0.1223
      2 C2          1.0266    1.8160   -0.3832 C.3       1 <0>        -0.1256
      3 C3          1.9175    1.4804   -1.5728 C.3       1 <0>        -0.0728
      4 C4          2.6348    0.1549   -1.3331 C.2       1 <0>        -0.0596
      5 C5          2.1271   -0.8027   -0.5326 C.2       1 <0>        -0.1619
      6 S1          3.3016   -2.1316   -0.5922 S.3       1 <0>         0.1015
      7 C6          4.4859   -1.3934   -1.6861 C.ar      1 <0>         0.1900
      8 C7          3.9236   -0.1357   -1.9738 C.ar      1 <0>        -0.2914
      9 C8          4.6808    0.6902   -2.8507 C.ar      1 <0>         0.5243
     10 N1          5.8299    0.2414   -3.3280 N.ar      1 <0>        -0.6271
     11 C9          6.3035   -0.9583   -3.0152 C.ar      1 <0>         0.6226
     12 N2          5.6402   -1.7698   -2.2028 N.ar      1 <0>        -0.5665
     13 N3          7.5137   -1.3710   -3.5480 N.pl3     1 <0>        -0.8126
     14 N4          4.2207    1.9467   -3.2001 N.pl3     1 <0>        -0.8401
     15 C10         0.8552   -0.7599    0.2563 C.3       1 <0>        -0.0398
     16 C11        -0.2900   -0.2929   -0.6518 C.3       1 <0>        -0.1154
     17 H1         -1.0045    1.5179    0.2589 H         1 <0>         0.0660
     18 H2         -0.7978    1.6134   -1.5045 H         1 <0>         0.0643
     19 H3          0.9513    2.8989   -0.2837 H         1 <0>         0.0675
     20 H4          1.4670    1.4036    0.5245 H         1 <0>         0.0754
     21 H5          1.3062    1.4031   -2.4718 H         1 <0>         0.0791
     22 H6          2.6553    2.2716   -1.7065 H         1 <0>         0.0785
     23 H7          8.0065   -0.7850   -4.1435 H         1 <0>         0.4170
     24 H8          7.8683   -2.2460   -3.3256 H         1 <0>         0.4181
     25 H9          4.8500    2.6421   -3.4477 H         1 <0>         0.4074
     26 H10         3.2687    2.1326   -3.1977 H         1 <0>         0.4147
     27 H11         0.6319   -1.7552    0.6406 H         1 <0>         0.0769
     28 H12         0.9664   -0.0647    1.0883 H         1 <0>         0.0916
     29 H13        -1.2298   -0.7268   -0.3104 H         1 <0>         0.0724
     30 H14        -0.0938   -0.6015   -1.6786 H         1 <0>         0.0679
@<TRIPOS>BOND
     1    1   16 1
     2    1    2 1
     3    1   17 1
     4    1   18 1
     5    2    3 1
     6    2   19 1
     7    2   20 1
     8    3    4 1
     9    3   21 1
    10    3   22 1
    11    4    8 1
    12    4    5 2
    13    5    6 1
    14    5   15 1
    15    6    7 1
    16    7   12 ar
    17    7    8 ar
    18    8    9 ar
    19    9   10 ar
    20    9   14 1
    21   10   11 ar
    22   11   12 ar
    23   11   13 1
    24   13   23 1
    25   13   24 1
    26   14   25 1
    27   14   26 1
    28   15   16 1
    29   15   27 1
    30   15   28 1
    31   16   29 1
    32   16   30 1
@<TRIPOS>MOLECULE
CHEMBL108006
   33    35     0     0     0
SMALL
USER_CHARGES

@<TRIPOS>ATOM
      1 C1          0.5754    2.5094   -0.8709 C.3       1 <0>        -0.1220
      2 C2          2.0329    2.8965   -1.0163 C.3       1 <0>        -0.1323
      3 C3          2.5187    3.1755    0.4099 C.3       1 <0>        -0.1160
      4 C4          2.3850    1.8775    1.2265 C.3       1 <0>        -0.0559
      5 C5          3.1204    0.8007    0.4792 C.2       1 <0>        -0.1522
      6 C6          2.7156    0.1058   -0.5977 C.2       1 <0>        -0.0556
      7 C7          3.7120   -0.8275   -1.1654 C.ar      1 <0>        -0.3063
      8 C8          3.5800   -1.6379   -2.3281 C.ar      1 <0>         0.5250
      9 N1          4.5848   -2.4211   -2.6834 N.ar      1 <0>        -0.6347
     10 C9          5.7152   -2.4770   -1.9896 C.ar      1 <0>         0.6263
     11 N2          5.8913   -1.7436   -0.8991 N.ar      1 <0>        -0.5707
     12 C10         4.9340   -0.9350   -0.4835 C.ar      1 <0>         0.1941
     13 S1          4.7450    0.1967    0.8666 S.3       1 <0>         0.0997
     14 N3          6.7307   -3.3184   -2.4131 N.pl3     1 <0>        -0.8129
     15 N4          2.4172   -1.6065   -3.0762 N.pl3     1 <0>        -0.8342
     16 C11         1.3275    0.1295   -1.2401 C.3       1 <0>        -0.0678
     17 C12         0.3601    1.0506   -0.5102 C.3       1 <0>        -0.1306
     18 H1          0.1267    3.1293   -0.0948 H         1 <0>         0.0651
     19 H2          0.0658    2.7136   -1.8126 H         1 <0>         0.0556
     20 H3          2.6001    2.0755   -1.4550 H         1 <0>         0.0776
     21 H4          2.1266    3.7927   -1.6296 H         1 <0>         0.0655
     22 H5          3.5620    3.4902    0.3879 H         1 <0>         0.0636
     23 H6          1.9075    3.9577    0.8601 H         1 <0>         0.0722
     24 H7          2.8281    2.0130    2.2131 H         1 <0>         0.0776
     25 H8          1.3334    1.6083    1.3252 H         1 <0>         0.1062
     26 H9          6.6120   -3.8594   -3.2095 H         1 <0>         0.4167
     27 H10         7.5607   -3.3667   -1.9134 H         1 <0>         0.4180
     28 H11         1.7336   -0.9462   -2.8824 H         1 <0>         0.4150
     29 H12         2.2854   -2.2447   -3.7946 H         1 <0>         0.4062
     30 H13         1.4229    0.4659   -2.2725 H         1 <0>         0.0747
     31 H14         0.9208   -0.8817   -1.2375 H         1 <0>         0.0801
     32 H15         0.4972    0.9279    0.5641 H         1 <0>         0.0823
     33 H16        -0.6604    0.7689   -0.7694 H         1 <0>         0.0698
@<TRIPOS>BOND
     1    1   17 1
     2    1    2 1
     3    1   18 1
     4    1   19 1
     5    2    3 1
     6    2   20 1
     7    2   21 1
     8    3    4 1
     9    3   22 1
    10    3   23 1
    11    4    5 1
    12    4   24 1
    13    4   25 1
    14    5   13 1
    15    5    6 2
    16    6    7 1
    17    6   16 1
    18    7   12 ar
    19    7    8 ar
    20    8    9 ar
    21    8   15 1
    22    9   10 ar
    23   10   11 ar
    24   10   14 1
    25   11   12 ar
    26   12   13 1
    27   14   26 1
    28   14   27 1
    29   15   28 1
    30   15   29 1
    31   16   17 1
    32   16   30 1
    33   16   31 1
    34   17   32 1
    35   17   33 1
@<TRIPOS>MOLECULE
CHEMBL92583
   32    33     0     0     0
SMALL
USER_CHARGES

@<TRIPOS>ATOM
      1 C1         -0.6687    1.4672    1.0655 C.3       1 <0>        -0.1747
      2 C2         -0.3851    0.0753    0.4973 C.3       1 <0>         0.4028
      3 N1         -1.5216   -0.8118    0.7711 N.pl3     1 <0>        -0.6949
      4 C3         -1.3272   -2.0840    0.9958 C.cat     1 <0>         0.7289
      5 N2         -0.0959   -2.6212    1.0303 N.2       1 <0>        -0.6337
      6 C4          0.9774   -1.8546    1.0905 C.2       1 <0>         0.7320
      7 N3          0.8089   -0.4905    1.1442 N.pl3     1 <0>        -0.5958
      8 C5          1.7400    0.3296    1.7910 C.ar      1 <0>         0.1060
      9 C6          1.6722    0.5084    3.1667 C.ar      1 <0>        -0.0845
     10 C7          2.5924    1.3179    3.8033 C.ar      1 <0>        -0.0816
     11 C8          3.5816    1.9514    3.0720 C.ar      1 <0>        -0.0107
     12 C9          3.6520    1.7752    1.7003 C.ar      1 <0>        -0.0243
     13 C10         2.7366    0.9614    1.0594 C.ar      1 <0>        -0.0904
     14 Cl1         4.8940    2.5720    0.7858 Cl        1 <0>        -0.0148
     15 Cl2         4.7360    2.9691    3.8754 Cl        1 <0>        -0.0138
     16 N4          2.2290   -2.4047    1.0998 N.pl3     1 <0>        -0.7687
     17 N5         -2.4198   -2.9013    1.2045 N.pl3     1 <0>        -0.7902
     18 C11        -0.1569    0.1714   -1.0125 C.3       1 <0>        -0.1824
     19 H1          0.1490    2.1394    0.8055 H         1 <0>         0.1014
     20 H2         -1.5997    1.8483    0.6457 H         1 <0>         0.1015
     21 H3         -0.7576    1.4057    2.1502 H         1 <0>         0.0840
     22 H4          0.9000    0.0150    3.7383 H         1 <0>         0.1440
     23 H5          2.5396    1.4569    4.8730 H         1 <0>         0.1599
     24 H6          2.7940    0.8207   -0.0099 H         1 <0>         0.1543
     25 H7          2.3382   -3.3635    1.0015 H         1 <0>         0.4424
     26 H8          3.0079   -1.8361    1.2047 H         1 <0>         0.4300
     27 H9         -3.3152   -2.5288    1.1831 H         1 <0>         0.4297
     28 H10        -2.2922   -3.8481    1.3726 H         1 <0>         0.4415
     29 H11         0.6942    0.8229   -1.2106 H         1 <0>         0.0972
     30 H12         0.0448   -0.8219   -1.4135 H         1 <0>         0.0733
     31 H13        -1.0472    0.5817   -1.4892 H         1 <0>         0.0991
     32 H14        -2.4221   -0.4515    0.7857 H         1 <0>         0.4329
@<TRIPOS>BOND
     1    1    2 1
     2    1   19 1
     3    1   20 1
     4    1   21 1
     5    2    7 1
     6    2    3 1
     7    2   18 1
     8    3    4 2
     9    3   32 1
    10    4    5 1
    11    4   17 1
    12    5    6 2
    13    6    7 1
    14    6   16 1
    15    7    8 1
    16    8   13 ar
    17    8    9 ar
    18    9   10 ar
    19    9   22 1
    20   10   11 ar
    21   10   23 1
    22   11   12 ar
    23   11   15 1
    24   12   13 ar
    25   12   14 1
    26   13   24 1
    27   16   25 1
    28   16   26 1
    29   17   27 1
    30   17   28 1
    31   18   29 1
    32   18   30 1
    33   18   31 1
@<TRIPOS>MOLECULE
CHEMBL306731
   37    39     0     0     0
SMALL
USER_CHARGES

@<TRIPOS>ATOM
      1 C1         -0.0167    1.3781    0.0096 C.ar      1 <0>        -0.1022
      2 C2          1.1709    2.0855    0.0021 C.ar      1 <0>        -0.1213
      3 C3          2.3773    1.4107   -0.0130 C.ar      1 <0>        -0.0940
      4 C4          2.3960    0.0285   -0.0201 C.ar      1 <0>        -0.1085
      5 C5          1.2084   -0.6789   -0.0117 C.ar      1 <0>        -0.0940
      6 C6          0.0021   -0.0041    0.0020 C.ar      1 <0>        -0.1213
      7 C7          3.7112   -0.7071   -0.0376 C.3       1 <0>         0.1120
      8 O1          4.1410   -0.9464    1.3041 O.3       1 <0>        -0.3380
      9 C8          5.3087   -1.5994    1.4652 C.2       1 <0>         0.5056
     10 O2          5.9445   -1.9559    0.4930 O.2       1 <0>        -0.4881
     11 C9          5.8148   -1.8813    2.8211 C.ar      1 <0>        -0.1214
     12 C10         5.0728   -1.4720    3.9433 C.ar      1 <0>         0.0217
     13 C11         5.5179   -1.7206    5.2027 C.ar      1 <0>        -0.1497
     14 C12         6.7343   -2.3947    5.3955 C.ar      1 <0>         0.2273
     15 C13         7.4897   -2.8114    4.2694 C.ar      1 <0>        -0.1982
     16 C14         7.0202   -2.5554    2.9827 C.ar      1 <0>         0.0282
     17 C15         8.7510   -3.5111    4.5115 C.ar      1 <0>         0.5669
     18 N1          9.1109   -3.7129    5.7726 N.ar      1 <0>        -0.5941
     19 C16         8.3535   -3.2948    6.7814 C.ar      1 <0>         0.6989
     20 N2          7.2089   -2.6600    6.6187 N.ar      1 <0>        -0.5876
     21 N3          8.7884   -3.5383    8.0698 N.pl3     1 <0>        -0.7837
     22 N4          9.5370   -3.9454    3.4677 N.pl3     1 <0>        -0.7551
     23 H1         -0.9591    1.9053    0.0259 H         1 <0>         0.1281
     24 H2          1.1563    3.1654    0.0076 H         1 <0>         0.1285
     25 H3          3.3051    1.9634   -0.0196 H         1 <0>         0.1248
     26 H4          1.2231   -1.7588   -0.0176 H         1 <0>         0.1248
     27 H5         -0.9258   -0.5567    0.0082 H         1 <0>         0.1285
     28 H6          3.5884   -1.6586   -0.5549 H         1 <0>         0.0842
     29 H7          4.4573   -0.1052   -0.5563 H         1 <0>         0.0843
     30 H8          4.1365   -0.9527    3.8022 H         1 <0>         0.1702
     31 H9          4.9369   -1.3996    6.0546 H         1 <0>         0.1672
     32 H10         7.5879   -2.8737    2.1208 H         1 <0>         0.1641
     33 H11         9.6265   -4.0032    8.2191 H         1 <0>         0.4462
     34 H12         8.2556   -3.2443    8.8252 H         1 <0>         0.4321
     35 H13         9.2572   -3.7891    2.5522 H         1 <0>         0.4352
     36 H14        10.3704   -4.4078    3.6479 H         1 <0>         0.4362
     37 H15         6.7030   -2.3810    7.3978 H         1 <0>         0.4421
@<TRIPOS>BOND
     1    1    6 ar
     2    1    2 ar
     3    1   23 1
     4    2    3 ar
     5    2   24 1
     6    3    4 ar
     7    3   25 1
     8    4    5 ar
     9    4    7 1
    10    5    6 ar
    11    5   26 1
    12    6   27 1
    13    7    8 1
    14    7   28 1
    15    7   29 1
    16    8    9 1
    17    9   10 2
    18    9   11 1
    19   11   16 ar
    20   11   12 ar
    21   12   13 ar
    22   12   30 1
    23   13   14 ar
    24   13   31 1
    25   14   20 ar
    26   14   15 ar
    27   15   16 ar
    28   15   17 ar
    29   16   32 1
    30   17   18 ar
    31   17   22 1
    32   18   19 ar
    33   19   20 ar
    34   19   21 1
    35   20   37 1
    36   21   33 1
    37   21   34 1
    38   22   35 1
    39   22   36 1
@<TRIPOS>MOLECULE
CHEMBL306731__1
   36    38     0     0     0
SMALL
USER_CHARGES

@<TRIPOS>ATOM
      1 C1         -0.0167    1.3781    0.0096 C.ar      1 <0>        -0.1081
      2 C2          1.1709    2.0855    0.0021 C.ar      1 <0>        -0.1226
      3 C3          2.3773    1.4107   -0.0130 C.ar      1 <0>        -0.0947
      4 C4          2.3960    0.0285   -0.0201 C.ar      1 <0>        -0.0998
      5 C5          1.2084   -0.6789   -0.0117 C.ar      1 <0>        -0.0947
      6 C6          0.0021   -0.0041    0.0020 C.ar      1 <0>        -0.1226
      7 C7          3.7112   -0.7071   -0.0376 C.3       1 <0>         0.1098
      8 O1          4.1410   -0.9464    1.3041 O.3       1 <0>        -0.3413
      9 C8          5.3087   -1.5994    1.4652 C.2       1 <0>         0.5148
     10 O2          5.9445   -1.9559    0.4930 O.2       1 <0>        -0.5115
     11 C9          5.8148   -1.8813    2.8211 C.ar      1 <0>        -0.1710
     12 C10         5.0728   -1.4720    3.9433 C.ar      1 <0>        -0.0184
     13 C11         5.5179   -1.7206    5.2027 C.ar      1 <0>        -0.1380
     14 C12         6.7343   -2.3947    5.3955 C.ar      1 <0>         0.2668
     15 C13         7.4897   -2.8114    4.2694 C.ar      1 <0>        -0.2532
     16 C14         7.0202   -2.5554    2.9827 C.ar      1 <0>         0.0279
     17 C15         8.7510   -3.5111    4.5115 C.ar      1 <0>         0.5240
     18 N1          9.1109   -3.7129    5.7726 N.ar      1 <0>        -0.6363
     19 C16         8.3535   -3.2948    6.7814 C.ar      1 <0>         0.6282
     20 N2          7.2089   -2.6600    6.6187 N.ar      1 <0>        -0.6184
     21 N3          8.7884   -3.5383    8.0698 N.pl3     1 <0>        -0.8128
     22 N4          9.5370   -3.9454    3.4677 N.pl3     1 <0>        -0.8083
     23 H1         -0.9591    1.9053    0.0259 H         1 <0>         0.1250
     24 H2          1.1563    3.1654    0.0076 H         1 <0>         0.1261
     25 H3          3.3051    1.9634   -0.0196 H         1 <0>         0.1246
     26 H4          1.2231   -1.7588   -0.0176 H         1 <0>         0.1246
     27 H5         -0.9258   -0.5567    0.0082 H         1 <0>         0.1261
     28 H6          3.5884   -1.6586   -0.5549 H         1 <0>         0.0787
     29 H7          4.4573   -0.1052   -0.5563 H         1 <0>         0.0787
     30 H8          4.1365   -0.9527    3.8022 H         1 <0>         0.1447
     31 H9          4.9369   -1.3996    6.0546 H         1 <0>         0.1454
     32 H10         7.5879   -2.8737    2.1208 H         1 <0>         0.1387
     33 H11         9.6265   -4.0032    8.2191 H         1 <0>         0.4147
     34 H12         8.2556   -3.2443    8.8252 H         1 <0>         0.4178
     35 H13         9.2572   -3.7891    2.5522 H         1 <0>         0.4181
     36 H14        10.3704   -4.4078    3.6479 H         1 <0>         0.4168
@<TRIPOS>BOND
     1    1    6 ar
     2    1    2 ar
     3    1   23 1
     4    2    3 ar
     5    2   24 1
     6    3    4 ar
     7    3   25 1
     8    4    5 ar
     9    4    7 1
    10    5    6 ar
    11    5   26 1
    12    6   27 1
    13    7    8 1
    14    7   28 1
    15    7   29 1
    16    8    9 1
    17    9   10 2
    18    9   11 1
    19   11   16 ar
    20   11   12 ar
    21   12   13 ar
    22   12   30 1
    23   13   14 ar
    24   13   31 1
    25   14   20 ar
    26   14   15 ar
    27   15   16 ar
    28   15   17 ar
    29   16   32 1
    30   17   18 ar
    31   17   22 1
    32   18   19 ar
    33   19   20 ar
    34   19   21 1
    35   21   33 1
    36   21   34 1
    37   22   35 1
    38   22   36 1
@<TRIPOS>MOLECULE
CHEMBL17232
   51    53     0     0     0
SMALL
USER_CHARGES

@<TRIPOS>ATOM
      1 C1         -0.0169    1.3937    0.0097 C.ar      1 <0>        -0.0194
      2 C2          1.1662    2.0965    0.0022 C.ar      1 <0>        -0.1956
      3 C3          2.3811    1.4169   -0.0131 C.ar      1 <0>         0.2049
      4 C4          2.4034    0.0249   -0.0208 C.ar      1 <0>        -0.1997
      5 C5          1.2237   -0.6836   -0.0138 C.ar      1 <0>        -0.0385
      6 C6          0.0021   -0.0041    0.0020 C.ar      1 <0>        -0.1469
      7 C7         -1.2644   -0.7605    0.0105 C.2       1 <0>         0.5478
      8 O1         -2.3263   -0.1682    0.0243 O.2       1 <0>        -0.5573
      9 N1         -1.2445   -2.1081    0.0031 N.am      1 <0>        -0.6744
     10 C8         -2.5022   -2.8593    0.0116 C.3       1 <0>         0.0727
     11 C9         -2.2637   -4.2464    0.6114 C.3       1 <0>        -0.0821
     12 C10        -1.8670   -4.1047    2.0823 C.3       1 <0>        -0.1763
     13 C11        -1.6321   -5.4710    2.6731 C.2       1 <0>         0.4900
     14 O2         -1.7693   -6.4659    1.9818 O.co2     1 <0>        -0.6954
     15 O3         -1.3049   -5.5815    3.8424 O.co2     1 <0>        -0.7203
     16 C12        -3.0110   -3.0030   -1.3996 C.2       1 <0>         0.4967
     17 O4         -2.3006   -2.6873   -2.3389 O.co2     1 <0>        -0.6997
     18 O5         -4.1331   -3.4348   -1.6021 O.co2     1 <0>        -0.6978
     19 N2          3.5749    2.1299   -0.0211 N.pl3     1 <0>        -0.7527
     20 C13         4.8542    1.4162   -0.0371 C.3       1 <0>         0.1832
     21 C14         5.9850    2.4124   -0.0431 C.2       1 <0>        -0.1054
     22 C15         6.6950    2.8106   -1.1106 C.2       1 <0>         0.0731
     23 N3          7.6401    3.7279   -0.7241 N.pl3     1 <0>        -0.5378
     24 H1          8.2727    4.1595   -1.3195 H         1 <0>         0.4375
     25 C16         7.5583    3.9444    0.6239 C.ar      1 <0>         0.3318
     26 C17         6.5158    3.1359    1.1119 C.ar      1 <0>        -0.2389
     27 C18         6.2160    3.1737    2.4825 C.ar      1 <0>         0.5767
     28 N4          6.9298    3.9768    3.2648 N.ar      1 <0>        -0.5881
     29 C19         7.9042    4.7271    2.7658 C.ar      1 <0>         0.6937
     30 N5          8.2238    4.7155    1.4827 N.ar      1 <0>        -0.5726
     31 N6          8.6189    5.5474    3.6229 N.pl3     1 <0>        -0.7956
     32 N7          5.2012    2.3940    3.0067 N.pl3     1 <0>        -0.7638
     33 H2         -0.9590    1.9215    0.0260 H         1 <0>         0.1361
     34 H3          1.1522    3.1764    0.0078 H         1 <0>         0.1198
     35 H4          3.3474   -0.4995   -0.0326 H         1 <0>         0.1226
     36 H5          1.2416   -1.7634   -0.0204 H         1 <0>         0.1316
     37 H6         -0.3974   -2.5806   -0.0078 H         1 <0>         0.3883
     38 H7         -3.2399   -2.3261    0.6112 H         1 <0>         0.0787
     39 H8         -3.1771   -4.8365    0.5367 H         1 <0>         0.0782
     40 H9         -1.4631   -4.7456    0.0656 H         1 <0>         0.0564
     41 H10        -0.9536   -3.5146    2.1570 H         1 <0>         0.0486
     42 H11        -2.6677   -3.6056    2.6281 H         1 <0>         0.0527
     43 H12         3.5606    3.0997   -0.0161 H         1 <0>         0.3979
     44 H13         4.9299    0.7860    0.8490 H         1 <0>         0.0719
     45 H14         4.9126    0.7950   -0.9309 H         1 <0>         0.0906
     46 H15         6.5451    2.4616   -2.1216 H         1 <0>         0.2078
     47 H16         8.4035    5.5659    4.5685 H         1 <0>         0.4454
     48 H17         9.3349    6.1033    3.2776 H         1 <0>         0.4269
     49 H18         4.6870    1.8121    2.4254 H         1 <0>         0.4355
     50 H19         5.0035    2.4289    3.9557 H         1 <0>         0.4295
     51 H20         8.9433    5.2816    1.1619 H         1 <0>         0.4317
@<TRIPOS>BOND
     1    1    6 ar
     2    1    2 ar
     3    1   33 1
     4    2    3 ar
     5    2   34 1
     6    3    4 ar
     7    3   19 1
     8    4    5 ar
     9    4   35 1
    10    5    6 ar
    11    5   36 1
    12    6    7 1
    13    7    8 2
    14    7    9 am
    15    9   10 1
    16    9   37 1
    17   10   11 1
    18   10   16 1
    19   10   38 1
    20   11   12 1
    21   11   39 1
    22   11   40 1
    23   12   13 1
    24   12   41 1
    25   12   42 1
    26   13   14 2
    27   13   15 1
    28   16   17 2
    29   16   18 1
    30   19   20 1
    31   19   43 1
    32   20   21 1
    33   20   44 1
    34   20   45 1
    35   21   26 1
    36   21   22 2
    37   22   23 1
    38   22   46 1
    39   23   24 1
    40   23   25 1
    41   25   30 ar
    42   25   26 ar
    43   26   27 ar
    44   27   28 ar
    45   27   32 1
    46   28   29 ar
    47   29   30 ar
    48   29   31 1
    49   30   51 1
    50   31   47 1
    51   31   48 1
    52   32   49 1
    53   32   50 1
@<TRIPOS>MOLECULE
CHEMBL17232__1
   51    53     0     0     0
SMALL
USER_CHARGES

@<TRIPOS>ATOM
      1 C1         -0.0169    1.3937    0.0097 C.ar      1 <0>        -0.0191
      2 C2          1.1662    2.0965    0.0022 C.ar      1 <0>        -0.1958
      3 C3          2.3811    1.4169   -0.0131 C.ar      1 <0>         0.2057
      4 C4          2.4034    0.0249   -0.0208 C.ar      1 <0>        -0.1997
      5 C5          1.2237   -0.6836   -0.0138 C.ar      1 <0>        -0.0380
      6 C6          0.0021   -0.0041    0.0020 C.ar      1 <0>        -0.1488
      7 C7         -1.2644   -0.7605    0.0105 C.2       1 <0>         0.5432
      8 O1         -2.3263   -0.1682    0.0243 O.2       1 <0>        -0.5550
      9 N1         -1.2445   -2.1081    0.0031 N.am      1 <0>        -0.6751
     10 C8         -2.5022   -2.8593    0.0116 C.3       1 <0>         0.0735
     11 C9         -2.2758   -4.2399   -0.6078 C.3       1 <0>        -0.0831
     12 C10        -1.9084   -4.0824   -2.0846 C.3       1 <0>        -0.1763
     13 C11        -1.6854   -5.4422   -2.6946 C.2       1 <0>         0.4900
     14 O2         -1.8089   -6.4445   -2.0115 O.co2     1 <0>        -0.6962
     15 O3         -1.3815   -5.5401   -3.8713 O.co2     1 <0>        -0.7192
     16 C12        -2.9829   -3.0182    1.4310 C.2       1 <0>         0.4984
     17 O4         -4.1770   -3.0939    1.6654 O.co2     1 <0>        -0.6981
     18 O5         -2.1777   -3.0709    2.3450 O.co2     1 <0>        -0.7011
     19 N2          3.5749    2.1299   -0.0211 N.pl3     1 <0>        -0.7526
     20 C13         4.8542    1.4162   -0.0371 C.3       1 <0>         0.1831
     21 C14         5.9850    2.4124   -0.0431 C.2       1 <0>        -0.1057
     22 C15         6.6950    2.8106   -1.1106 C.2       1 <0>         0.0734
     23 N3          7.6401    3.7279   -0.7241 N.pl3     1 <0>        -0.5377
     24 H1          8.2727    4.1595   -1.3195 H         1 <0>         0.4376
     25 C16         7.5583    3.9444    0.6239 C.ar      1 <0>         0.3318
     26 C17         6.5158    3.1359    1.1119 C.ar      1 <0>        -0.2389
     27 C18         6.2160    3.1737    2.4825 C.ar      1 <0>         0.5766
     28 N4          6.9298    3.9768    3.2648 N.ar      1 <0>        -0.5881
     29 C19         7.9042    4.7271    2.7658 C.ar      1 <0>         0.6937
     30 N5          8.2238    4.7155    1.4827 N.ar      1 <0>        -0.5725
     31 N6          8.6189    5.5474    3.6229 N.pl3     1 <0>        -0.7956
     32 N7          5.2012    2.3940    3.0067 N.pl3     1 <0>        -0.7639
     33 H2         -0.9590    1.9215    0.0260 H         1 <0>         0.1363
     34 H3          1.1522    3.1764    0.0078 H         1 <0>         0.1200
     35 H4          3.3474   -0.4995   -0.0326 H         1 <0>         0.1230
     36 H5          1.2416   -1.7634   -0.0204 H         1 <0>         0.1322
     37 H6         -0.3974   -2.5806   -0.0078 H         1 <0>         0.3897
     38 H7         -3.2516   -2.3197   -0.5676 H         1 <0>         0.0784
     39 H8         -1.4645   -4.7448   -0.0833 H         1 <0>         0.0599
     40 H9         -3.1876   -4.8309   -0.5212 H         1 <0>         0.0737
     41 H10        -2.7197   -3.5775   -2.6090 H         1 <0>         0.0530
     42 H11        -0.9966   -3.4914   -2.1711 H         1 <0>         0.0495
     43 H12         3.5606    3.0997   -0.0161 H         1 <0>         0.3980
     44 H13         4.9299    0.7860    0.8490 H         1 <0>         0.0718
     45 H14         4.9126    0.7950   -0.9309 H         1 <0>         0.0910
     46 H15         6.5451    2.4616   -2.1216 H         1 <0>         0.2080
     47 H16         8.4035    5.5659    4.5685 H         1 <0>         0.4453
     48 H17         9.3349    6.1033    3.2776 H         1 <0>         0.4269
     49 H18         4.6870    1.8121    2.4254 H         1 <0>         0.4355
     50 H19         5.0035    2.4289    3.9557 H         1 <0>         0.4294
     51 H20         8.9433    5.2816    1.1619 H         1 <0>         0.4317
@<TRIPOS>BOND
     1    1    6 ar
     2    1    2 ar
     3    1   33 1
     4    2    3 ar
     5    2   34 1
     6    3    4 ar
     7    3   19 1
     8    4    5 ar
     9    4   35 1
    10    5    6 ar
    11    5   36 1
    12    6    7 1
    13    7    8 2
    14    7    9 am
    15    9   10 1
    16    9   37 1
    17   10   11 1
    18   10   16 1
    19   10   38 1
    20   11   12 1
    21   11   39 1
    22   11   40 1
    23   12   13 1
    24   12   41 1
    25   12   42 1
    26   13   14 2
    27   13   15 1
    28   16   17 2
    29   16   18 1
    30   19   20 1
    31   19   43 1
    32   20   21 1
    33   20   44 1
    34   20   45 1
    35   21   26 1
    36   21   22 2
    37   22   23 1
    38   22   46 1
    39   23   24 1
    40   23   25 1
    41   25   30 ar
    42   25   26 ar
    43   26   27 ar
    44   27   28 ar
    45   27   32 1
    46   28   29 ar
    47   29   30 ar
    48   29   31 1
    49   30   51 1
    50   31   47 1
    51   31   48 1
    52   32   49 1
    53   32   50 1
@<TRIPOS>MOLECULE
CHEMBL313553
   66    69     0     0     0
SMALL
USER_CHARGES

@<TRIPOS>ATOM
      1 C1          0.5250   -2.7171    5.0630 C.3       1 <0>        -0.1530
      2 C2          0.8069   -3.7305    3.9520 C.3       1 <0>        -0.1067
      3 C3          0.0047   -3.3704    2.7282 C.ar      1 <0>         0.2584
      4 C4          0.4842   -2.4267    1.8225 C.ar      1 <0>        -0.1893
      5 C5         -0.3023   -2.1257    0.6952 C.ar      1 <0>         0.5475
      6 N1         -1.4645   -2.7490    0.5390 N.ar      1 <0>        -0.5603
      7 C6         -1.8799   -3.6398    1.4271 C.ar      1 <0>         0.6649
      8 N2         -1.1619   -3.9505    2.4970 N.ar      1 <0>        -0.5671
      9 N3         -3.0965   -4.2680    1.2293 N.pl3     1 <0>        -0.7936
     10 N4          0.1277   -1.1957   -0.2344 N.pl3     1 <0>        -0.7747
     11 C7          1.7890   -1.7567    2.0410 C.ar      1 <0>        -0.0428
     12 C8          1.8366   -0.3853    2.2918 C.ar      1 <0>        -0.0971
     13 C9          3.0500    0.2411    2.4961 C.ar      1 <0>        -0.0873
     14 C10         4.2248   -0.4855    2.4535 C.ar      1 <0>        -0.0134
     15 C11         4.1898   -1.8593    2.2032 C.ar      1 <0>         0.0674
     16 C12         2.9670   -2.4961    2.0018 C.ar      1 <0>        -0.1040
     17 N5          5.3564   -2.5807    2.1605 N.2       1 <0>        -0.2590
     18 N6          5.5003   -3.5235    1.2919 N.2       1 <0>         0.1335
     19 N7          4.7658   -3.4952    0.0992 N.pl3     1 <0>        -0.5311
     20 C13         4.2834   -2.2187   -0.4339 C.3       1 <0>         0.0769
     21 C14         5.2658   -1.7017   -1.4867 C.3       1 <0>         0.0506
     22 O1          5.2963   -2.6047   -2.5939 O.3       1 <0>        -0.3557
     23 C15         6.1867   -2.3481   -3.5651 C.2       1 <0>         0.4607
     24 O2          6.8522   -1.3405   -3.5238 O.2       1 <0>        -0.5026
     25 C16         6.3563   -3.3169   -4.7069 C.3       1 <0>        -0.1480
     26 C17         4.4802   -4.7421   -0.6150 C.3       1 <0>         0.1703
     27 C18         3.1167   -5.2469   -0.2187 C.ar      1 <0>        -0.0969
     28 C19         2.9853   -6.1234    0.8144 C.ar      1 <0>        -0.0985
     29 C20         1.7330   -6.6011    1.1951 C.ar      1 <0>        -0.1091
     30 C21         0.6046   -6.2055    0.5447 C.ar      1 <0>        -0.1195
     31 C22         0.7005   -5.3017   -0.5268 C.ar      1 <0>        -0.0568
     32 C23         1.9739   -4.8109   -0.9101 C.ar      1 <0>        -0.0341
     33 C24         2.0691   -3.9023   -1.9781 C.ar      1 <0>        -0.1160
     34 C25         0.9403   -3.5023   -2.6245 C.ar      1 <0>        -0.1115
     35 C26        -0.3125   -3.9798   -2.2434 C.ar      1 <0>        -0.1017
     36 C27        -0.4420   -4.8707   -1.2227 C.ar      1 <0>        -0.1106
     37 Cl1         5.7461    0.3103    2.7109 Cl        1 <0>        -0.0188
     38 H1          0.8869   -1.7348    4.7592 H         1 <0>         0.0725
     39 H2         -0.5483   -2.6681    5.2464 H         1 <0>         0.0635
     40 H3          1.0357   -3.0263    5.9750 H         1 <0>         0.0892
     41 H4          1.8691   -3.7156    3.7075 H         1 <0>         0.1183
     42 H5          0.5259   -4.7279    4.2902 H         1 <0>         0.1041
     43 H6         -3.6317   -4.0540    0.4492 H         1 <0>         0.4449
     44 H7         -3.4143   -4.9226    1.8707 H         1 <0>         0.4298
     45 H8          0.9428   -0.6939   -0.0772 H         1 <0>         0.4281
     46 H9         -0.3859   -1.0455   -1.0434 H         1 <0>         0.4279
     47 H10         0.9220    0.1881    2.3260 H         1 <0>         0.1428
     48 H11         3.0812    1.3032    2.6896 H         1 <0>         0.1545
     49 H12         2.9340   -3.5588    1.8119 H         1 <0>         0.1427
     50 H13         3.3041   -2.3625   -0.8904 H         1 <0>         0.0976
     51 H14         4.2038   -1.4936    0.3760 H         1 <0>         0.1063
     52 H15         4.9466   -0.7174   -1.8293 H         1 <0>         0.0825
     53 H16         6.2617   -1.6290   -1.0496 H         1 <0>         0.0770
     54 H17         5.6768   -4.1586   -4.5732 H         1 <0>         0.0908
     55 H18         6.1306   -2.8135   -5.6470 H         1 <0>         0.1083
     56 H19         7.3841   -3.6792   -4.7264 H         1 <0>         0.1099
     57 H20         4.5017   -4.5586   -1.6892 H         1 <0>         0.1086
     58 H21         5.2325   -5.4881   -0.3587 H         1 <0>         0.1047
     59 H22         3.8650   -6.4538    1.3468 H         1 <0>         0.1303
     60 H23         1.6565   -7.2960    2.0184 H         1 <0>         0.1273
     61 H24        -0.3594   -6.5846    0.8503 H         1 <0>         0.1180
     62 H25         3.0330   -3.5232   -2.2840 H         1 <0>         0.1389
     63 H26         1.0163   -2.8040   -3.4448 H         1 <0>         0.1263
     64 H27        -1.1926   -3.6460   -2.7729 H         1 <0>         0.1255
     65 H28        -1.4192   -5.2328   -0.9390 H         1 <0>         0.1178
     66 H29        -1.4987   -4.6112    3.1223 H         1 <0>         0.4406
@<TRIPOS>BOND
     1    1    2 1
     2    1   38 1
     3    1   39 1
     4    1   40 1
     5    2    3 1
     6    2   41 1
     7    2   42 1
     8    3    8 ar
     9    3    4 ar
    10    4    5 ar
    11    4   11 1
    12    5    6 ar
    13    5   10 1
    14    6    7 ar
    15    7    8 ar
    16    7    9 1
    17    8   66 1
    18    9   43 1
    19    9   44 1
    20   10   45 1
    21   10   46 1
    22   11   16 ar
    23   11   12 ar
    24   12   13 ar
    25   12   47 1
    26   13   14 ar
    27   13   48 1
    28   14   15 ar
    29   14   37 1
    30   15   16 ar
    31   15   17 1
    32   16   49 1
    33   17   18 2
    34   18   19 1
    35   19   20 1
    36   19   26 1
    37   20   21 1
    38   20   50 1
    39   20   51 1
    40   21   22 1
    41   21   52 1
    42   21   53 1
    43   22   23 1
    44   23   24 2
    45   23   25 1
    46   25   54 1
    47   25   55 1
    48   25   56 1
    49   26   27 1
    50   26   57 1
    51   26   58 1
    52   27   32 ar
    53   27   28 ar
    54   28   29 ar
    55   28   59 1
    56   29   30 ar
    57   29   60 1
    58   30   31 ar
    59   30   61 1
    60   31   36 ar
    61   31   32 ar
    62   32   33 ar
    63   33   34 ar
    64   33   62 1
    65   34   35 ar
    66   34   63 1
    67   35   36 ar
    68   35   64 1
    69   36   65 1
@<TRIPOS>MOLECULE
CHEMBL313553__1
   65    68     0     0     0
SMALL
USER_CHARGES

@<TRIPOS>ATOM
      1 C1         -2.5977    4.7701   -0.1114 C.3       1 <0>        -0.1404
      2 C2         -2.4497    3.9724    1.1858 C.3       1 <0>        -0.0778
      3 C3         -1.0877    3.3287    1.2270 C.ar      1 <0>         0.2718
      4 C4         -0.8920    2.0567    0.6935 C.ar      1 <0>        -0.2821
      5 C5          0.3986    1.4995    0.7562 C.ar      1 <0>         0.5048
      6 N1          1.3746    2.2035    1.3182 N.ar      1 <0>        -0.6120
      7 C6          1.1411    3.4100    1.8125 C.ar      1 <0>         0.6130
      8 N2         -0.0610    3.9664    1.7655 N.ar      1 <0>        -0.5975
      9 N3          2.1838    4.1122    2.3901 N.pl3     1 <0>        -0.8244
     10 N4          0.6466    0.2395    0.2415 N.pl3     1 <0>        -0.8335
     11 C7         -2.0143    1.3094    0.0762 C.ar      1 <0>        -0.0008
     12 C8         -2.6890    0.3321    0.8082 C.ar      1 <0>        -0.0937
     13 C9         -3.7347   -0.3649    0.2362 C.ar      1 <0>        -0.0991
     14 C10        -4.1199   -0.0996   -1.0642 C.ar      1 <0>        -0.0174
     15 C11        -3.4519    0.8768   -1.8071 C.ar      1 <0>         0.0545
     16 C12        -2.3996    1.5861   -1.2318 C.ar      1 <0>        -0.1212
     17 N5         -3.8341    1.1399   -3.0985 N.2       1 <0>        -0.2681
     18 N6         -2.9995    1.6794   -3.9209 N.2       1 <0>         0.1161
     19 N7         -1.6264    1.4355   -3.7863 N.pl3     1 <0>        -0.5201
     20 C13        -1.1595    0.2891   -3.0027 C.3       1 <0>         0.0607
     21 C14        -0.8067   -0.8632   -3.9454 C.3       1 <0>         0.0534
     22 O1          0.2788   -0.4733   -4.7890 O.3       1 <0>        -0.3515
     23 C15         0.6486   -1.3392   -5.7457 C.2       1 <0>         0.4594
     24 O2          0.0123   -2.3507   -5.9237 O.2       1 <0>        -0.5073
     25 C16         1.8575   -1.0497   -6.5976 C.3       1 <0>        -0.1482
     26 C17        -0.6576    2.3269   -4.4290 C.3       1 <0>         0.1737
     27 C18        -0.1831    3.3542   -3.4338 C.ar      1 <0>        -0.1139
     28 C19        -0.7970    4.5667   -3.3567 C.ar      1 <0>        -0.0938
     29 C20        -0.3723    5.5291   -2.4430 C.ar      1 <0>        -0.1175
     30 C21         0.6693    5.2849   -1.6013 C.ar      1 <0>        -0.0900
     31 C22         1.3278    4.0448   -1.6516 C.ar      1 <0>        -0.0467
     32 C23         0.8917    3.0635   -2.5769 C.ar      1 <0>        -0.0333
     33 C24         1.5468    1.8208   -2.6231 C.ar      1 <0>        -0.1265
     34 C25         2.5842    1.5747   -1.7775 C.ar      1 <0>        -0.1033
     35 C26         3.0089    2.5373   -0.8632 C.ar      1 <0>        -0.0825
     36 C27         2.4073    3.7564   -0.7990 C.ar      1 <0>        -0.1017
     37 Cl1        -5.4353   -0.9812   -1.7757 Cl        1 <0>        -0.0420
     38 H1         -1.8295    5.5422   -0.1528 H         1 <0>         0.0615
     39 H2         -2.4863    4.1006   -0.9643 H         1 <0>         0.0536
     40 H3         -3.5828    5.2357   -0.1412 H         1 <0>         0.0624
     41 H4         -2.5611    4.6419    2.0387 H         1 <0>         0.0855
     42 H5         -3.2179    3.2003    1.2273 H         1 <0>         0.0804
     43 H6          3.0701    3.7199    2.4287 H         1 <0>         0.4118
     44 H7          2.0286    4.9968    2.7565 H         1 <0>         0.4140
     45 H8         -0.0151   -0.1939   -0.3200 H         1 <0>         0.4048
     46 H9          1.4821   -0.2105    0.4421 H         1 <0>         0.4065
     47 H10        -2.3925    0.1199    1.8248 H         1 <0>         0.1357
     48 H11        -4.2534   -1.1208    0.8072 H         1 <0>         0.1432
     49 H12        -1.8824    2.3448   -1.8003 H         1 <0>         0.1467
     50 H13        -0.2761    0.5749   -2.4318 H         1 <0>         0.1026
     51 H14        -1.9468   -0.0287   -2.3192 H         1 <0>         0.1175
     52 H15        -0.5166   -1.7357   -3.3600 H         1 <0>         0.0801
     53 H16        -1.6735   -1.1091   -4.5589 H         1 <0>         0.0766
     54 H17         2.2980   -0.1004   -6.2927 H         1 <0>         0.0918
     55 H18         2.5899   -1.8471   -6.4720 H         1 <0>         0.1067
     56 H19         1.5590   -0.9921   -7.6444 H         1 <0>         0.1068
     57 H20         0.1928    1.7443   -4.7833 H         1 <0>         0.1050
     58 H21        -1.1305    2.8296   -5.2727 H         1 <0>         0.0984
     59 H22        -1.6256    4.7862   -4.0138 H         1 <0>         0.1224
     60 H23        -0.8767    6.4832   -2.4022 H         1 <0>         0.1214
     61 H24         0.9881    6.0406   -0.8986 H         1 <0>         0.1206
     62 H25         1.2282    1.0651   -3.3258 H         1 <0>         0.1324
     63 H26         3.0858    0.6190   -1.8151 H         1 <0>         0.1154
     64 H27         3.8346    2.3162   -0.2031 H         1 <0>         0.1170
     65 H28         2.7477    4.4928   -0.0861 H         1 <0>         0.1182
@<TRIPOS>BOND
     1    1    2 1
     2    1   38 1
     3    1   39 1
     4    1   40 1
     5    2    3 1
     6    2   41 1
     7    2   42 1
     8    3    8 ar
     9    3    4 ar
    10    4    5 ar
    11    4   11 1
    12    5    6 ar
    13    5   10 1
    14    6    7 ar
    15    7    8 ar
    16    7    9 1
    17    9   43 1
    18    9   44 1
    19   10   45 1
    20   10   46 1
    21   11   16 ar
    22   11   12 ar
    23   12   13 ar
    24   12   47 1
    25   13   14 ar
    26   13   48 1
    27   14   15 ar
    28   14   37 1
    29   15   16 ar
    30   15   17 1
    31   16   49 1
    32   17   18 2
    33   18   19 1
    34   19   20 1
    35   19   26 1
    36   20   21 1
    37   20   50 1
    38   20   51 1
    39   21   22 1
    40   21   52 1
    41   21   53 1
    42   22   23 1
    43   23   24 2
    44   23   25 1
    45   25   54 1
    46   25   55 1
    47   25   56 1
    48   26   27 1
    49   26   57 1
    50   26   58 1
    51   27   32 ar
    52   27   28 ar
    53   28   29 ar
    54   28   59 1
    55   29   30 ar
    56   29   60 1
    57   30   31 ar
    58   30   61 1
    59   31   36 ar
    60   31   32 ar
    61   32   33 ar
    62   33   34 ar
    63   33   62 1
    64   34   35 ar
    65   34   63 1
    66   35   36 ar
    67   35   64 1
    68   36   65 1
@<TRIPOS>MOLECULE
CHEMBL313553__2
   66    69     0     0     0
SMALL
USER_CHARGES

@<TRIPOS>ATOM
      1 C1          0.6567   -0.6145    0.9571 C.3       1 <0>        -0.1544
      2 C2          1.0225    0.7389    0.3443 C.3       1 <0>        -0.1051
      3 C3          1.9551    0.5273   -0.8204 C.ar      1 <0>         0.2541
      4 C4          3.3168    0.3257   -0.6065 C.ar      1 <0>        -0.1891
      5 C5          4.1457    0.1324   -1.7271 C.ar      1 <0>         0.5408
      6 N1          3.6011    0.1495   -2.9382 N.ar      1 <0>        -0.5734
      7 C6          2.3002    0.3449   -3.0930 C.ar      1 <0>         0.6659
      8 N2          1.4904    0.5251   -2.0593 N.ar      1 <0>        -0.5688
      9 N3          1.7703    0.3559   -4.3709 N.pl3     1 <0>        -0.7908
     10 N4          5.5049   -0.0716   -1.5698 N.pl3     1 <0>        -0.7721
     11 C7          3.8782    0.3156    0.7661 C.ar      1 <0>        -0.0546
     12 C8          3.8967    1.4880    1.5218 C.ar      1 <0>        -0.0870
     13 C9          4.4183    1.4814    2.8002 C.ar      1 <0>        -0.0919
     14 C10         4.9253    0.3144    3.3396 C.ar      1 <0>         0.0091
     15 C11         4.9123   -0.8658    2.5925 C.ar      1 <0>         0.1303
     16 C12         4.3820   -0.8646    1.3040 C.ar      1 <0>        -0.1133
     17 N5          5.4161   -2.0245    3.1279 N.2       1 <0>        -0.3352
     18 N6          5.4033   -3.1135    2.4365 N.2       1 <0>         0.0572
     19 N7          5.9177   -4.2964    2.9831 N.pl3     1 <0>        -0.4579
     20 C13         6.4702   -4.2967    4.3399 C.3       1 <0>         0.0996
     21 C14         5.3647   -4.6388    5.3407 C.3       1 <0>         0.0519
     22 O1          4.9153   -5.9764    5.1153 O.3       1 <0>        -0.3547
     23 C15         3.9400   -6.4346    5.9156 C.2       1 <0>         0.4591
     24 O2          3.4830   -5.7236    6.7790 O.2       1 <0>        -0.5085
     25 C16         3.4150   -7.8359    5.7373 C.3       1 <0>        -0.1476
     26 C17         5.9031   -5.5331    2.1979 C.3       1 <0>         0.1867
     27 C18         7.2278   -5.7002    1.4991 C.ar      1 <0>        -0.1101
     28 C19         8.1737   -6.5317    2.0155 C.ar      1 <0>        -0.0877
     29 C20         9.4042   -6.6989    1.3836 C.ar      1 <0>        -0.1157
     30 C21         9.6963   -6.0351    0.2315 C.ar      1 <0>        -0.0946
     31 C22         8.7449   -5.1681   -0.3316 C.ar      1 <0>        -0.0532
     32 C23         7.4907   -5.0028    0.3080 C.ar      1 <0>        -0.0325
     33 C24         6.5368   -4.1399   -0.2586 C.ar      1 <0>        -0.1059
     34 C25         6.8268   -3.4810   -1.4134 C.ar      1 <0>        -0.1197
     35 C26         8.0575   -3.6485   -2.0458 C.ar      1 <0>        -0.1222
     36 C27         9.0105   -4.4653   -1.5194 C.ar      1 <0>        -0.0978
     37 Cl1         5.5798    0.3153    4.9475 Cl        1 <0>        -0.0268
     38 H1          0.0888   -1.1994    0.2336 H         1 <0>         0.0642
     39 H2          1.5675   -1.1509    1.2232 H         1 <0>         0.0704
     40 H3          0.0532   -0.4573    1.8511 H         1 <0>         0.0885
     41 H4          0.1171    1.2379   -0.0012 H         1 <0>         0.1042
     42 H5          1.5139    1.3570    1.0956 H         1 <0>         0.1237
     43 H6          2.3495    0.2217   -5.1373 H         1 <0>         0.4454
     44 H7          0.8195    0.4978   -4.5005 H         1 <0>         0.4305
     45 H8          5.8942   -0.0822   -0.6814 H         1 <0>         0.4323
     46 H9          6.0687   -0.2040   -2.3479 H         1 <0>         0.4282
     47 H10         3.5023    2.4033    1.1057 H         1 <0>         0.1404
     48 H11         4.4305    2.3920    3.3809 H         1 <0>         0.1522
     49 H12         4.3657   -1.7752    0.7236 H         1 <0>         0.1410
     50 H13         7.2649   -5.0396    4.4084 H         1 <0>         0.0968
     51 H14         6.8743   -3.3103    4.5679 H         1 <0>         0.1129
     52 H15         5.7536   -4.5523    6.3553 H         1 <0>         0.0826
     53 H16         4.5310   -3.9487    5.2111 H         1 <0>         0.0715
     54 H17         3.9439   -8.3204    4.9166 H         1 <0>         0.0916
     55 H18         3.5720   -8.4023    6.6553 H         1 <0>         0.1083
     56 H19         2.3494   -7.7987    5.5111 H         1 <0>         0.1057
     57 H20         5.7320   -6.3819    2.8600 H         1 <0>         0.1114
     58 H21         5.1051   -5.4837    1.4570 H         1 <0>         0.0945
     59 H22         7.9675   -7.0697    2.9290 H         1 <0>         0.1285
     60 H23        10.1373   -7.3647    1.8143 H         1 <0>         0.1291
     61 H24        10.6545   -6.1739   -0.2469 H         1 <0>         0.1303
     62 H25         5.5787   -4.0009    0.2199 H         1 <0>         0.1276
     63 H26         6.0920   -2.8186   -1.8467 H         1 <0>         0.1108
     64 H27         8.2621   -3.1139   -2.9617 H         1 <0>         0.1221
     65 H28         9.9599   -4.5847   -2.0200 H         1 <0>         0.1290
     66 H29         0.5424    0.6610   -2.2137 H         1 <0>         0.4419
@<TRIPOS>BOND
     1    1    2 1
     2    1   38 1
     3    1   39 1
     4    1   40 1
     5    2    3 1
     6    2   41 1
     7    2   42 1
     8    3    8 ar
     9    3    4 ar
    10    4    5 ar
    11    4   11 1
    12    5    6 ar
    13    5   10 1
    14    6    7 ar
    15    7    8 ar
    16    7    9 1
    17    8   66 1
    18    9   43 1
    19    9   44 1
    20   10   45 1
    21   10   46 1
    22   11   16 ar
    23   11   12 ar
    24   12   13 ar
    25   12   47 1
    26   13   14 ar
    27   13   48 1
    28   14   15 ar
    29   14   37 1
    30   15   16 ar
    31   15   17 1
    32   16   49 1
    33   17   18 2
    34   18   19 1
    35   19   20 1
    36   19   26 1
    37   20   21 1
    38   20   50 1
    39   20   51 1
    40   21   22 1
    41   21   52 1
    42   21   53 1
    43   22   23 1
    44   23   24 2
    45   23   25 1
    46   25   54 1
    47   25   55 1
    48   25   56 1
    49   26   27 1
    50   26   57 1
    51   26   58 1
    52   27   32 ar
    53   27   28 ar
    54   28   29 ar
    55   28   59 1
    56   29   30 ar
    57   29   60 1
    58   30   31 ar
    59   30   61 1
    60   31   36 ar
    61   31   32 ar
    62   32   33 ar
    63   33   34 ar
    64   33   62 1
    65   34   35 ar
    66   34   63 1
    67   35   36 ar
    68   35   64 1
    69   36   65 1
@<TRIPOS>MOLECULE
CHEMBL313553__3
   65    68     0     0     0
SMALL
USER_CHARGES

@<TRIPOS>ATOM
      1 C1         -0.8946    0.2153   -0.3071 C.3       1 <0>        -0.1412
      2 C2         -1.3192   -1.2471   -0.4557 C.3       1 <0>        -0.0815
      3 C3         -0.7828   -1.7966   -1.7524 C.ar      1 <0>         0.2695
      4 C4         -1.5318   -1.7005   -2.9231 C.ar      1 <0>        -0.2854
      5 C5         -0.9865   -2.2286   -4.1079 C.ar      1 <0>         0.4994
      6 N1          0.2140   -2.7949   -4.0648 N.ar      1 <0>        -0.6292
      7 C6          0.8898   -2.8635   -2.9276 C.ar      1 <0>         0.6110
      8 N2          0.4080   -2.3718   -1.7950 N.ar      1 <0>        -0.6023
      9 N3          2.1375   -3.4611   -2.9232 N.pl3     1 <0>        -0.8190
     10 N4         -1.6893   -2.1594   -5.2976 N.pl3     1 <0>        -0.8295
     11 C7         -2.8689   -1.0590   -2.9206 C.ar      1 <0>         0.0005
     12 C8         -3.9162   -1.6300   -2.1973 C.ar      1 <0>        -0.0939
     13 C9         -5.1620   -1.0346   -2.1928 C.ar      1 <0>        -0.0983
     14 C10        -5.3799    0.1300   -2.9041 C.ar      1 <0>        -0.0041
     15 C11        -4.3389    0.7111   -3.6321 C.ar      1 <0>         0.1150
     16 C12        -3.0789    0.1163   -3.6350 C.ar      1 <0>        -0.1170
     17 N5         -4.5554    1.8673   -4.3388 N.2       1 <0>        -0.3224
     18 N6         -3.5930    2.4025   -5.0105 N.2       1 <0>         0.0526
     19 N7         -3.8140    3.5830   -5.7320 N.pl3     1 <0>        -0.4736
     20 C13        -5.1383    4.2095   -5.7236 C.3       1 <0>         0.1033
     21 C14        -5.2177    5.2187   -4.5764 C.3       1 <0>         0.0516
     22 O1         -4.2966    6.2848   -4.8152 O.3       1 <0>        -0.3527
     23 C15        -4.2422    7.2607   -3.8952 C.2       1 <0>         0.4580
     24 O2         -4.9531    7.2114   -2.9194 O.2       1 <0>        -0.5107
     25 C16        -3.2945    8.4178   -4.0793 C.3       1 <0>        -0.1469
     26 C17        -2.7210    4.1908   -6.4949 C.3       1 <0>         0.1893
     27 C18        -2.7685    3.6998   -7.9189 C.ar      1 <0>        -0.1028
     28 C19        -3.3260    4.4728   -8.8909 C.ar      1 <0>        -0.0960
     29 C20        -3.3790    4.0357  -10.2128 C.ar      1 <0>        -0.1192
     30 C21        -2.8753    2.8228  -10.5706 C.ar      1 <0>        -0.0980
     31 C22        -2.2922    1.9970   -9.5950 C.ar      1 <0>        -0.0542
     32 C23        -2.2326    2.4443   -8.2512 C.ar      1 <0>        -0.0329
     33 C24        -1.6439    1.6205   -7.2764 C.ar      1 <0>        -0.1028
     34 C25        -1.1351    0.4105   -7.6353 C.ar      1 <0>        -0.1145
     35 C26        -1.1878   -0.0266   -8.9578 C.ar      1 <0>        -0.1155
     36 C27        -1.7621    0.7381   -9.9262 C.ar      1 <0>        -0.1065
     37 Cl1        -6.9495    0.8715   -2.8933 Cl        1 <0>        -0.0494
     38 H1          0.1935    0.2794   -0.3065 H         1 <0>         0.0592
     39 H2         -1.2923    0.7955   -1.1398 H         1 <0>         0.0548
     40 H3         -1.2826    0.6128    0.6307 H         1 <0>         0.0654
     41 H4         -0.9216   -1.8273    0.3769 H         1 <0>         0.0877
     42 H5         -2.4073   -1.3112   -0.4564 H         1 <0>         0.0879
     43 H6          2.5052   -3.8223   -3.7449 H         1 <0>         0.4138
     44 H7          2.6446   -3.5189   -2.0983 H         1 <0>         0.4158
     45 H8         -2.5657   -1.7443   -5.3198 H         1 <0>         0.4124
     46 H9         -1.3057   -2.5261   -6.1096 H         1 <0>         0.4069
     47 H10        -3.7522   -2.5403   -1.6397 H         1 <0>         0.1359
     48 H11        -5.9694   -1.4810   -1.6314 H         1 <0>         0.1430
     49 H12        -2.2695    0.5637   -4.1929 H         1 <0>         0.1363
     50 H13        -5.3035    4.7226   -6.6710 H         1 <0>         0.0914
     51 H14        -5.9017    3.4436   -5.5872 H         1 <0>         0.1104
     52 H15        -6.2294    5.6196   -4.5145 H         1 <0>         0.0789
     53 H16        -4.9652    4.7235   -3.6387 H         1 <0>         0.0725
     54 H17        -2.7410    8.2896   -5.0095 H         1 <0>         0.0913
     55 H18        -3.8607    9.3484   -4.1187 H         1 <0>         0.1058
     56 H19        -2.5964    8.4524   -3.2429 H         1 <0>         0.1051
     57 H20        -2.8274    5.2755   -6.4808 H         1 <0>         0.1067
     58 H21        -1.7669    3.9134   -6.0466 H         1 <0>         0.0933
     59 H22        -3.7335    5.4393   -8.6334 H         1 <0>         0.1251
     60 H23        -3.8268    4.6686  -10.9647 H         1 <0>         0.1247
     61 H24        -2.9240    2.4968  -11.5991 H         1 <0>         0.1267
     62 H25        -1.5953    1.9463   -6.2478 H         1 <0>         0.1304
     63 H26        -0.6833   -0.2205   -6.8843 H         1 <0>         0.1202
     64 H27        -0.7763   -0.9911   -9.2160 H         1 <0>         0.1219
     65 H28        -1.7965    0.3861  -10.9466 H         1 <0>         0.1259
@<TRIPOS>BOND
     1    1    2 1
     2    1   38 1
     3    1   39 1
     4    1   40 1
     5    2    3 1
     6    2   41 1
     7    2   42 1
     8    3    8 ar
     9    3    4 ar
    10    4    5 ar
    11    4   11 1
    12    5    6 ar
    13    5   10 1
    14    6    7 ar
    15    7    8 ar
    16    7    9 1
    17    9   43 1
    18    9   44 1
    19   10   45 1
    20   10   46 1
    21   11   16 ar
    22   11   12 ar
    23   12   13 ar
    24   12   47 1
    25   13   14 ar
    26   13   48 1
    27   14   15 ar
    28   14   37 1
    29   15   16 ar
    30   15   17 1
    31   16   49 1
    32   17   18 2
    33   18   19 1
    34   19   20 1
    35   19   26 1
    36   20   21 1
    37   20   50 1
    38   20   51 1
    39   21   22 1
    40   21   52 1
    41   21   53 1
    42   22   23 1
    43   23   24 2
    44   23   25 1
    45   25   54 1
    46   25   55 1
    47   25   56 1
    48   26   27 1
    49   26   57 1
    50   26   58 1
    51   27   32 ar
    52   27   28 ar
    53   28   29 ar
    54   28   59 1
    55   29   30 ar
    56   29   60 1
    57   30   31 ar
    58   30   61 1
    59   31   36 ar
    60   31   32 ar
    61   32   33 ar
    62   33   34 ar
    63   33   62 1
    64   34   35 ar
    65   34   63 1
    66   35   36 ar
    67   35   64 1
    68   36   65 1
@<TRIPOS>MOLECULE
CHEMBL430821
   57    61     0     0     0
SMALL
USER_CHARGES

@<TRIPOS>ATOM
      1 C1         -0.0158    1.3103    0.0092 C.ar      1 <0>        -0.1289
      2 C2          1.2504    2.0631    0.0012 C.ar      1 <0>        -0.1168
      3 C3          2.3959    1.4174   -0.0026 C.ar      1 <0>        -0.1218
      4 C4          2.4158   -0.0576    0.0012 C.ar      1 <0>         0.1914
      5 C5          1.2872   -0.7303   -0.0142 C.ar      1 <0>        -0.0846
      6 C6          0.0021   -0.0041    0.0020 C.ar      1 <0>        -0.0933
      7 C7          1.2842   -2.1948   -0.0842 C.2       1 <0>        -0.0968
      8 C8          2.1113   -2.9783    0.5294 C.2       1 <0>        -0.0889
      9 C9          3.1992   -2.5404    1.4107 C.ar      1 <0>        -0.0356
     10 C10         3.4973   -3.3145    2.6317 C.ar      1 <0>        -0.1597
     11 C11         4.4867   -2.9538    3.4186 C.ar      1 <0>         0.1279
     12 C12         5.3013   -1.7738    3.0813 C.ar      1 <0>        -0.1519
     13 C13         5.0288   -1.0770    2.0001 C.ar      1 <0>        -0.1065
     14 C14         3.9094   -1.4738    1.1244 C.ar      1 <0>         0.1439
     15 N1          3.6014   -0.7030    0.0583 N.pl3     1 <0>        -0.5813
     16 C15         4.5587   -0.5660   -1.0422 C.3       1 <0>         0.1910
     17 C16         5.4680    0.6055   -0.7741 C.ar      1 <0>         0.0260
     18 C17         6.7066    0.3938   -0.1693 C.ar      1 <0>         0.1496
     19 N2          7.5181    1.4009    0.0746 N.ar      1 <0>        -0.4382
     20 C18         7.1501    2.6397   -0.2616 C.ar      1 <0>         0.3742
     21 C19         5.8903    2.8491   -0.8760 C.ar      1 <0>        -0.0936
     22 N3          5.0878    1.8176   -1.1180 N.ar      1 <0>        -0.3668
     23 C20         5.5223    4.2210   -1.2304 C.ar      1 <0>         0.5438
     24 N4          6.3917    5.1831   -0.9541 N.ar      1 <0>        -0.6283
     25 C21         7.5577    4.9142   -0.3754 C.ar      1 <0>         0.6390
     26 N5          7.9378    3.6984   -0.0361 N.ar      1 <0>        -0.6001
     27 N6          8.4170    5.9647   -0.1155 N.pl3     1 <0>        -0.8077
     28 N7          4.3147    4.5025   -1.8307 N.pl3     1 <0>        -0.7932
     29 O1          4.7586   -3.6707    4.5443 O.3       1 <0>        -0.3116
     30 C22         5.8481   -3.2213    5.3524 C.3       1 <0>         0.0592
     31 C23         5.9998   -4.1442    6.5632 C.3       1 <0>        -0.0921
     32 C24         7.1662   -3.6630    7.4284 C.3       1 <0>        -0.1808
     33 C25         7.3156   -4.5721    8.6210 C.2       1 <0>         0.4912
     34 O2          6.5592   -5.5173    8.7655 O.co2     1 <0>        -0.6957
     35 O3          8.1929   -4.3623    9.4413 O.co2     1 <0>        -0.7049
     36 H1         -0.9580    1.8379    0.0256 H         1 <0>         0.1223
     37 H2          1.2379    3.1430   -0.0012 H         1 <0>         0.1189
     38 H3          3.3247    1.9684   -0.0081 H         1 <0>         0.1278
     39 H4         -0.9270   -0.5547    0.0087 H         1 <0>         0.1230
     40 H5          0.5280   -2.6588   -0.7001 H         1 <0>         0.1170
     41 H6          1.9906   -4.0412    0.3809 H         1 <0>         0.1201
     42 H7          2.9003   -4.1796    2.8797 H         1 <0>         0.1334
     43 H8          6.1207   -1.4812    3.7212 H         1 <0>         0.1332
     44 H9          5.6257   -0.2116    1.7524 H         1 <0>         0.1202
     45 H10         5.1529   -1.4763   -1.1224 H         1 <0>         0.0998
     46 H11         4.0190   -0.4010   -1.9748 H         1 <0>         0.0955
     47 H12         7.0033   -0.6084    0.1026 H         1 <0>         0.1796
     48 H13         8.1628    6.8697   -0.3547 H         1 <0>         0.4162
     49 H14         9.2744    5.7971    0.3060 H         1 <0>         0.4198
     50 H15         3.6911    3.7855   -2.0256 H         1 <0>         0.4254
     51 H16         4.0879    5.4178   -2.0584 H         1 <0>         0.4154
     52 H17         6.7666   -3.2377    4.7657 H         1 <0>         0.0577
     53 H18         5.6526   -2.2044    5.6929 H         1 <0>         0.0558
     54 H19         5.0813   -4.1278    7.1499 H         1 <0>         0.0710
     55 H20         6.1952   -5.1611    6.2227 H         1 <0>         0.0717
     56 H21         8.0847   -3.6794    6.8417 H         1 <0>         0.0594
     57 H22         6.9708   -2.6461    7.7689 H         1 <0>         0.0586
@<TRIPOS>BOND
     1    1    6 ar
     2    1    2 ar
     3    1   36 1
     4    2    3 ar
     5    2   37 1
     6    3    4 ar
     7    3   38 1
     8    4   15 1
     9    4    5 ar
    10    5    6 ar
    11    5    7 1
    12    6   39 1
    13    7    8 2
    14    7   40 1
    15    8    9 1
    16    8   41 1
    17    9   14 ar
    18    9   10 ar
    19   10   11 ar
    20   10   42 1
    21   11   12 ar
    22   11   29 1
    23   12   13 ar
    24   12   43 1
    25   13   14 ar
    26   13   44 1
    27   14   15 1
    28   15   16 1
    29   16   17 1
    30   16   45 1
    31   16   46 1
    32   17   22 ar
    33   17   18 ar
    34   18   19 ar
    35   18   47 1
    36   19   20 ar
    37   20   26 ar
    38   20   21 ar
    39   21   22 ar
    40   21   23 ar
    41   23   24 ar
    42   23   28 1
    43   24   25 ar
    44   25   26 ar
    45   25   27 1
    46   27   48 1
    47   27   49 1
    48   28   50 1
    49   28   51 1
    50   29   30 1
    51   30   31 1
    52   30   52 1
    53   30   53 1
    54   31   32 1
    55   31   54 1
    56   31   55 1
    57   32   33 1
    58   32   56 1
    59   32   57 1
    60   33   34 2
    61   33   35 1
@<TRIPOS>MOLECULE
CHEMBL608610
   35    36     0     0     0
SMALL
USER_CHARGES

@<TRIPOS>ATOM
      1 C1         -0.0184    1.5028    0.0103 C.3       1 <0>        -0.0799
      2 C2          0.0021   -0.0041    0.0020 C.2       1 <0>        -0.2857
      3 C3         -1.1526   -0.7039    0.0037 C.2       1 <0>         0.1980
      4 N1         -1.1160   -2.0718   -0.0039 N.am      1 <0>        -0.5202
      5 C4          0.0598   -2.7257   -0.0125 C.2       1 <0>         0.7119
      6 O1          0.0693   -3.9416   -0.0187 O.2       1 <0>        -0.5509
      7 N2          1.2256   -2.0531   -0.0148 N.am      1 <0>        -0.6585
      8 H1          2.0644   -2.5402   -0.0217 H         1 <0>         0.4251
      9 C5          1.2322   -0.7047   -0.0135 C.2       1 <0>         0.5600
     10 O2          2.2865   -0.0953   -0.0208 O.2       1 <0>        -0.5299
     11 C6         -2.3687   -2.8312   -0.0021 C.3       1 <0>         0.3063
     12 C7         -2.4508   -3.7091   -1.2694 C.3       1 <0>         0.0396
     13 H2         -2.1903   -4.7429   -1.0427 H         1 <0>         0.0946
     14 C8         -3.9500   -3.5891   -1.6569 C.3       1 <0>         0.0442
     15 H3         -4.5586   -4.2987   -1.0964 H         1 <0>         0.0949
     16 C9         -4.2500   -2.1320   -1.2238 C.3       1 <0>         0.0909
     17 H4         -3.9321   -1.4340   -1.9983 H         1 <0>         0.0951
     18 O3         -3.4827   -1.9311   -0.0261 O.3       1 <0>        -0.3352
     19 C10        -5.7428   -1.9603   -0.9356 C.3       1 <0>         0.1362
     20 O4         -6.0182   -0.5871   -0.6516 O.3       1 <0>        -0.7506
     21 P1         -7.4925   -0.0426   -0.3025 P.3       1 <0>         2.1259
     22 O5         -8.4835   -0.4482   -1.4462 O.2       1 <0>        -1.1877
     23 O6         -7.9732   -0.6678    1.0512 O.3       1 <0>        -1.1854
     24 O7         -7.4556    1.5183   -0.1728 O.3       1 <0>        -1.1650
     25 O8         -4.1332   -3.7571   -3.0641 O.3       1 <0>        -0.5331
     26 O9         -1.6111   -3.1902   -2.3027 O.3       1 <0>        -0.5372
     27 H5          1.0042    1.8801    0.0026 H         1 <0>         0.0737
     28 H6         -0.5455    1.8639   -0.8728 H         1 <0>         0.0700
     29 H7         -0.5286    1.8543    0.9071 H         1 <0>         0.0703
     30 H8         -2.1006   -0.1866    0.0113 H         1 <0>         0.1903
     31 H9         -2.4194   -3.4586    0.8879 H         1 <0>         0.1308
     32 H10        -6.3192   -2.2740   -1.8059 H         1 <0>         0.0614
     33 H11        -6.0197   -2.5716   -0.0767 H         1 <0>         0.0436
     34 H12        -3.8554   -4.6217   -3.3964 H         1 <0>         0.3743
     35 H13        -1.6280   -3.7071   -3.1198 H         1 <0>         0.3819
@<TRIPOS>BOND
     1    1    2 1
     2    1   27 1
     3    1   28 1
     4    1   29 1
     5    2    9 1
     6    2    3 2
     7    3    4 1
     8    3   30 1
     9    4    5 am
    10    4   11 1
    11    5    6 2
    12    5    7 am
    13    7    8 1
    14    7    9 am
    15    9   10 2
    16   11   18 1
    17   11   12 1
    18   11   31 1
    19   12   13 1
    20   12   14 1
    21   12   26 1
    22   14   15 1
    23   14   16 1
    24   14   25 1
    25   16   17 1
    26   16   18 1
    27   16   19 1
    28   19   20 1
    29   19   32 1
    30   19   33 1
    31   20   21 1
    32   21   22 2
    33   21   23 1
    34   21   24 1
    35   25   34 1
    36   26   35 1
@<TRIPOS>MOLECULE
CHEMBL608610__1
   36    37     0     0     0
SMALL
USER_CHARGES

@<TRIPOS>ATOM
      1 C1         -0.0184    1.5028    0.0103 C.3       1 <0>        -0.0812
      2 C2          0.0021   -0.0041    0.0020 C.2       1 <0>        -0.2771
      3 C3         -1.1526   -0.7039    0.0037 C.2       1 <0>         0.1894
      4 N1         -1.1160   -2.0718   -0.0039 N.am      1 <0>        -0.5236
      5 C4          0.0598   -2.7257   -0.0125 C.2       1 <0>         0.7128
      6 O1          0.0693   -3.9416   -0.0187 O.2       1 <0>        -0.5461
      7 N2          1.2256   -2.0531   -0.0148 N.am      1 <0>        -0.6576
      8 H1          2.0644   -2.5402   -0.0217 H         1 <0>         0.4283
      9 C5          1.2322   -0.7047   -0.0135 C.2       1 <0>         0.5577
     10 O2          2.2865   -0.0953   -0.0208 O.2       1 <0>        -0.5214
     11 C6         -2.3687   -2.8312   -0.0021 C.3       1 <0>         0.3113
     12 C7         -2.4508   -3.7091   -1.2694 C.3       1 <0>         0.0389
     13 H2         -2.1903   -4.7429   -1.0427 H         1 <0>         0.0999
     14 C8         -3.9500   -3.5891   -1.6569 C.3       1 <0>         0.0448
     15 H3         -4.5586   -4.2987   -1.0964 H         1 <0>         0.0976
     16 C9         -4.2500   -2.1320   -1.2238 C.3       1 <0>         0.0888
     17 H4         -3.9321   -1.4340   -1.9983 H         1 <0>         0.1000
     18 O3         -3.4827   -1.9311   -0.0261 O.3       1 <0>        -0.3422
     19 C10        -5.7428   -1.9603   -0.9356 C.3       1 <0>         0.1422
     20 O4         -6.0182   -0.5871   -0.6516 O.3       1 <0>        -0.7539
     21 P1         -7.4925   -0.0426   -0.3025 P.3       1 <0>         2.2112
     22 O5         -8.4698   -0.4426   -1.4304 O.2       1 <0>        -1.1078
     23 O6         -7.9666   -0.6592    1.0324 O.3       1 <0>        -1.1046
     24 O7         -7.4545    1.5615   -0.1692 O.3       1 <0>        -0.8965
     25 O8         -4.1332   -3.7571   -3.0641 O.3       1 <0>        -0.5359
     26 O9         -1.6111   -3.1902   -2.3027 O.3       1 <0>        -0.5367
     27 H5          1.0042    1.8801    0.0026 H         1 <0>         0.0770
     28 H6         -0.5455    1.8639   -0.8728 H         1 <0>         0.0690
     29 H7         -0.5286    1.8543    0.9071 H         1 <0>         0.0695
     30 H8         -2.1006   -0.1866    0.0113 H         1 <0>         0.1853
     31 H9         -2.4194   -3.4586    0.8879 H         1 <0>         0.1342
     32 H10        -6.3192   -2.2740   -1.8059 H         1 <0>         0.0796
     33 H11        -6.0197   -2.5716   -0.0767 H         1 <0>         0.0638
     34 H12        -8.3107    1.9591    0.0407 H         1 <0>         0.4153
     35 H13        -3.8554   -4.6217   -3.3964 H         1 <0>         0.3823
     36 H14        -1.6280   -3.7071   -3.1198 H         1 <0>         0.3857
@<TRIPOS>BOND
     1    1    2 1
     2    1   27 1
     3    1   28 1
     4    1   29 1
     5    2    9 1
     6    2    3 2
     7    3    4 1
     8    3   30 1
     9    4    5 am
    10    4   11 1
    11    5    6 2
    12    5    7 am
    13    7    8 1
    14    7    9 am
    15    9   10 2
    16   11   18 1
    17   11   12 1
    18   11   31 1
    19   12   13 1
    20   12   14 1
    21   12   26 1
    22   14   15 1
    23   14   16 1
    24   14   25 1
    25   16   17 1
    26   16   18 1
    27   16   19 1
    28   19   20 1
    29   19   32 1
    30   19   33 1
    31   20   21 1
    32   21   22 2
    33   21   23 1
    34   21   24 1
    35   24   34 1
    36   25   35 1
    37   26   36 1
@<TRIPOS>MOLECULE
CHEMBL608610__2
   35    36     0     0     0
SMALL
USER_CHARGES

@<TRIPOS>ATOM
      1 C1         -0.0184    1.5028    0.0103 C.3       1 <0>        -0.0772
      2 C2          0.0021   -0.0041    0.0020 C.2       1 <0>        -0.2787
      3 C3         -1.1526   -0.7039    0.0037 C.2       1 <0>         0.1892
      4 N1         -1.1160   -2.0718   -0.0039 N.am      1 <0>        -0.5215
      5 C4          0.0598   -2.7257   -0.0125 C.2       1 <0>         0.6895
      6 O1          0.0693   -3.9416   -0.0187 O.2       1 <0>        -0.5022
      7 N2          1.2256   -2.0531   -0.0148 N.am      1 <0>        -0.6583
      8 H1          2.0644   -2.5402   -0.0217 H         1 <0>         0.4304
      9 C5          1.2322   -0.7047   -0.0135 C.2       1 <0>         0.5596
     10 O2          2.2865   -0.0953   -0.0208 O.2       1 <0>        -0.5258
     11 C6         -2.3687   -2.8312   -0.0021 C.3       1 <0>         0.3027
     12 C7         -2.4803   -3.6876   -1.2829 C.3       1 <0>         0.0351
     13 H2         -1.4912   -3.8922   -1.6929 H         1 <0>         0.0880
     14 C8         -3.1485   -4.9955   -0.8030 C.3       1 <0>         0.0501
     15 H3         -2.4898   -5.8466   -0.9758 H         1 <0>         0.0905
     16 C9         -3.3616   -4.7746    0.7110 C.3       1 <0>         0.0926
     17 H4         -4.3668   -4.3989    0.9018 H         1 <0>         0.0946
     18 O3         -2.3765   -3.7857    1.0818 O.3       1 <0>        -0.3250
     19 C10        -3.1265   -6.0776    1.4777 C.3       1 <0>         0.1401
     20 O4         -3.4409   -5.8815    2.8578 O.3       1 <0>        -0.7511
     21 P1         -3.3088   -7.0464    3.9613 P.3       1 <0>         2.1271
     22 O5         -4.1422   -8.2928    3.5073 O.2       1 <0>        -1.1880
     23 O6         -1.8034   -7.4524    4.1144 O.3       1 <0>        -1.1851
     24 O7         -3.8521   -6.5275    5.3361 O.3       1 <0>        -1.1663
     25 O8         -4.4001   -5.1903   -1.4645 O.3       1 <0>        -0.5351
     26 O9         -3.2977   -3.0317   -2.2542 O.3       1 <0>        -0.5458
     27 H5          1.0042    1.8801    0.0026 H         1 <0>         0.0773
     28 H6         -0.5455    1.8639   -0.8728 H         1 <0>         0.0660
     29 H7         -0.5286    1.8543    0.9071 H         1 <0>         0.0684
     30 H8         -2.1006   -0.1866    0.0113 H         1 <0>         0.1784
     31 H9         -3.2206   -2.1563    0.0805 H         1 <0>         0.1247
     32 H10        -3.7641   -6.8606    1.0674 H         1 <0>         0.0594
     33 H11        -2.0815   -6.3723    1.3814 H         1 <0>         0.0469
     34 H12        -4.3283   -5.2751   -2.4250 H         1 <0>         0.3697
     35 H13        -3.4018   -3.5257   -3.0790 H         1 <0>         0.3800
@<TRIPOS>BOND
     1    1    2 1
     2    1   27 1
     3    1   28 1
     4    1   29 1
     5    2    9 1
     6    2    3 2
     7    3    4 1
     8    3   30 1
     9    4    5 am
    10    4   11 1
    11    5    6 2
    12    5    7 am
    13    7    8 1
    14    7    9 am
    15    9   10 2
    16   11   18 1
    17   11   12 1
    18   11   31 1
    19   12   13 1
    20   12   14 1
    21   12   26 1
    22   14   15 1
    23   14   16 1
    24   14   25 1
    25   16   17 1
    26   16   18 1
    27   16   19 1
    28   19   20 1
    29   19   32 1
    30   19   33 1
    31   20   21 1
    32   21   22 2
    33   21   23 1
    34   21   24 1
    35   25   34 1
    36   26   35 1
@<TRIPOS>MOLECULE
CHEMBL608610__3
   36    37     0     0     0
SMALL
USER_CHARGES

@<TRIPOS>ATOM
      1 C1         -0.0184    1.5028    0.0103 C.3       1 <0>        -0.0816
      2 C2          0.0021   -0.0041    0.0020 C.2       1 <0>        -0.2659
      3 C3         -1.1526   -0.7039    0.0037 C.2       1 <0>         0.1795
      4 N1         -1.1160   -2.0718   -0.0039 N.am      1 <0>        -0.5240
      5 C4          0.0598   -2.7257   -0.0125 C.2       1 <0>         0.6931
      6 O1          0.0693   -3.9416   -0.0187 O.2       1 <0>        -0.5113
      7 N2          1.2256   -2.0531   -0.0148 N.am      1 <0>        -0.6583
      8 H1          2.0644   -2.5402   -0.0217 H         1 <0>         0.4318
      9 C5          1.2322   -0.7047   -0.0135 C.2       1 <0>         0.5566
     10 O2          2.2865   -0.0953   -0.0208 O.2       1 <0>        -0.5160
     11 C6         -2.3687   -2.8312   -0.0021 C.3       1 <0>         0.3081
     12 C7         -2.4803   -3.6876   -1.2829 C.3       1 <0>         0.0348
     13 H2         -1.4912   -3.8922   -1.6929 H         1 <0>         0.0916
     14 C8         -3.1485   -4.9955   -0.8030 C.3       1 <0>         0.0505
     15 H3         -2.4898   -5.8466   -0.9758 H         1 <0>         0.0925
     16 C9         -3.3616   -4.7746    0.7110 C.3       1 <0>         0.0906
     17 H4         -4.3668   -4.3989    0.9018 H         1 <0>         0.0994
     18 O3         -2.3765   -3.7857    1.0818 O.3       1 <0>        -0.3322
     19 C10        -3.1265   -6.0776    1.4777 C.3       1 <0>         0.1460
     20 O4         -3.4409   -5.8815    2.8578 O.3       1 <0>        -0.7542
     21 P1         -3.3088   -7.0464    3.9613 P.3       1 <0>         2.2111
     22 O5         -4.1307   -8.2756    3.5136 O.2       1 <0>        -1.1077
     23 O6         -1.8242   -7.4468    4.1122 O.3       1 <0>        -1.1041
     24 O7         -3.8671   -6.5131    5.3741 O.3       1 <0>        -0.8966
     25 O8         -4.4001   -5.1903   -1.4645 O.3       1 <0>        -0.5371
     26 O9         -3.2977   -3.0317   -2.2542 O.3       1 <0>        -0.5437
     27 H5          1.0042    1.8801    0.0026 H         1 <0>         0.0797
     28 H6         -0.5455    1.8639   -0.8728 H         1 <0>         0.0694
     29 H7         -0.5286    1.8543    0.9071 H         1 <0>         0.0703
     30 H8         -2.1006   -0.1866    0.0113 H         1 <0>         0.1795
     31 H9         -3.2206   -2.1563    0.0805 H         1 <0>         0.1275
     32 H10        -3.7641   -6.8606    1.0674 H         1 <0>         0.0779
     33 H11        -2.0815   -6.3723    1.3814 H         1 <0>         0.0669
     34 H12        -3.8183   -7.1642    6.0874 H         1 <0>         0.4147
     35 H13        -4.3283   -5.2751   -2.4250 H         1 <0>         0.3774
     36 H14        -3.4018   -3.5257   -3.0790 H         1 <0>         0.3840
@<TRIPOS>BOND
     1    1    2 1
     2    1   27 1
     3    1   28 1
     4    1   29 1
     5    2    9 1
     6    2    3 2
     7    3    4 1
     8    3   30 1
     9    4    5 am
    10    4   11 1
    11    5    6 2
    12    5    7 am
    13    7    8 1
    14    7    9 am
    15    9   10 2
    16   11   18 1
    17   11   12 1
    18   11   31 1
    19   12   13 1
    20   12   14 1
    21   12   26 1
    22   14   15 1
    23   14   16 1
    24   14   25 1
    25   16   17 1
    26   16   18 1
    27   16   19 1
    28   19   20 1
    29   19   32 1
    30   19   33 1
    31   20   21 1
    32   21   22 2
    33   21   23 1
    34   21   24 1
    35   24   34 1
    36   25   35 1
    37   26   36 1
@<TRIPOS>MOLECULE
CHEMBL178888
   54    57     0     0     0
SMALL
USER_CHARGES

@<TRIPOS>ATOM
      1 C1          0.6027    1.5059    0.0256 C.3       1 <0>        -0.1619
      2 C2          0.5978   -0.0011    0.0167 C.ar      1 <0>         0.0883
      3 C3          0.7711   -0.7002   -1.1492 C.ar      1 <0>        -0.1548
      4 C4          0.7631   -2.0894   -1.1308 C.ar      1 <0>         0.2300
      5 N1          0.5923   -2.7658   -0.0167 N.ar      1 <0>        -0.4984
      6 C5          0.4186   -2.1439    1.1496 C.ar      1 <0>         0.4052
      7 C6          0.4219   -0.7279    1.1996 C.ar      1 <0>        -0.2401
      8 C7          0.2403   -0.0941    2.4537 C.ar      1 <0>         0.5792
      9 N2          0.0801   -0.8575    3.5253 N.ar      1 <0>        -0.5791
     10 C8          0.0882   -2.1844    3.4357 C.ar      1 <0>         0.6994
     11 N3          0.2432   -2.8239    2.2916 N.ar      1 <0>        -0.5726
     12 N4         -0.0838   -2.9256    4.5891 N.pl3     1 <0>        -0.7781
     13 N5          0.2308    1.2796    2.5567 N.pl3     1 <0>        -0.8014
     14 C9          0.9696    0.0364   -2.4489 C.3       1 <0>         0.0776
     15 N6          2.3660    0.4809   -2.5515 N.3       1 <0>        -0.4341
     16 N7          2.5809    1.1537   -3.7207 N.pl3     1 <0>        -0.5998
     17 C10         3.8520    1.6621   -4.0122 C.ar      1 <0>         0.1976
     18 C11         4.8937    1.4784   -3.1182 C.ar      1 <0>        -0.1424
     19 C12         6.1577    1.9861   -3.4119 C.ar      1 <0>        -0.0364
     20 C13         6.3696    2.6767   -4.6037 C.ar      1 <0>        -0.1173
     21 C14         5.3288    2.8582   -5.4921 C.ar      1 <0>        -0.1587
     22 C15         4.0720    2.3489   -5.2053 C.ar      1 <0>         0.0659
     23 O1          3.0509    2.5246   -6.0859 O.3       1 <0>        -0.3250
     24 C16         3.3467    3.2376   -7.2884 C.3       1 <0>         0.0297
     25 C17         7.2764    1.7921   -2.4569 C.ar      1 <0>        -0.0407
     26 C18         7.0676    1.0972   -1.2672 C.ar      1 <0>        -0.1137
     27 C19         8.1120    0.9192   -0.3826 C.ar      1 <0>        -0.1195
     28 C20         9.3641    1.4292   -0.6752 C.ar      1 <0>        -0.1190
     29 C21         9.5770    2.1198   -1.8547 C.ar      1 <0>        -0.1142
     30 C22         8.5411    2.2991   -2.7490 C.ar      1 <0>        -0.1103
     31 H1          1.5940    1.8644    0.3030 H         1 <0>         0.1112
     32 H2          0.3472    1.8760   -0.9673 H         1 <0>         0.1054
     33 H3         -0.1295    1.8674    0.7476 H         1 <0>         0.1008
     34 H4          0.9004   -2.6280   -2.0567 H         1 <0>         0.1903
     35 H5         -0.2071   -2.4769    5.4402 H         1 <0>         0.4480
     36 H6         -0.0814   -3.8947    4.5477 H         1 <0>         0.4335
     37 H7         -0.4109    1.7180    3.1371 H         1 <0>         0.4305
     38 H8          0.8658    1.8084    2.0488 H         1 <0>         0.4372
     39 H9          0.7374   -0.6273   -3.2818 H         1 <0>         0.0671
     40 H10         0.3092    0.9030   -2.4798 H         1 <0>         0.1087
     41 H11         3.0010   -0.2980   -2.4605 H         1 <0>         0.3278
     42 H12         1.8526    1.2792   -4.3490 H         1 <0>         0.4116
     43 H13         4.7266    0.9431   -2.1951 H         1 <0>         0.1328
     44 H14         7.3489    3.0705   -4.8322 H         1 <0>         0.1280
     45 H15         5.4953    3.3941   -6.4149 H         1 <0>         0.1338
     46 H16         2.4474    3.3067   -7.9005 H         1 <0>         0.1009
     47 H17         3.6951    4.2402   -7.0401 H         1 <0>         0.0573
     48 H18         4.1233    2.7099   -7.8420 H         1 <0>         0.0568
     49 H19         6.0904    0.6989   -1.0375 H         1 <0>         0.1201
     50 H20         7.9513    0.3812    0.5399 H         1 <0>         0.1210
     51 H21        10.1784    1.2879    0.0200 H         1 <0>         0.1233
     52 H22        10.5566    2.5158   -2.0781 H         1 <0>         0.1260
     53 H23         8.7094    2.8349   -3.6715 H         1 <0>         0.1267
     54 H24         0.2412   -3.7938    2.2786 H         1 <0>         0.4455
@<TRIPOS>BOND
     1    1    2 1
     2    1   31 1
     3    1   32 1
     4    1   33 1
     5    2    7 ar
     6    2    3 ar
     7    3    4 ar
     8    3   14 1
     9    4    5 ar
    10    4   34 1
    11    5    6 ar
    12    6   11 ar
    13    6    7 ar
    14    7    8 ar
    15    8    9 ar
    16    8   13 1
    17    9   10 ar
    18   10   11 ar
    19   10   12 1
    20   11   54 1
    21   12   35 1
    22   12   36 1
    23   13   37 1
    24   13   38 1
    25   14   15 1
    26   14   39 1
    27   14   40 1
    28   15   16 1
    29   15   41 1
    30   16   17 1
    31   16   42 1
    32   17   22 ar
    33   17   18 ar
    34   18   19 ar
    35   18   43 1
    36   19   20 ar
    37   19   25 1
    38   20   21 ar
    39   20   44 1
    40   21   22 ar
    41   21   45 1
    42   22   23 1
    43   23   24 1
    44   24   46 1
    45   24   47 1
    46   24   48 1
    47   25   30 ar
    48   25   26 ar
    49   26   27 ar
    50   26   49 1
    51   27   28 ar
    52   27   50 1
    53   28   29 ar
    54   28   51 1
    55   29   30 ar
    56   29   52 1
    57   30   53 1
@<TRIPOS>MOLECULE
CHEMBL178888__1
   53    56     0     0     0
SMALL
USER_CHARGES

@<TRIPOS>ATOM
      1 C1          0.6027    1.5059    0.0256 C.3       1 <0>        -0.1479
      2 C2          0.5978   -0.0011    0.0167 C.ar      1 <0>         0.0713
      3 C3          0.7711   -0.7002   -1.1492 C.ar      1 <0>        -0.2000
      4 C4          0.7631   -2.0894   -1.1308 C.ar      1 <0>         0.2020
      5 N1          0.5923   -2.7658   -0.0167 N.ar      1 <0>        -0.4897
      6 C5          0.4186   -2.1439    1.1496 C.ar      1 <0>         0.4152
      7 C6          0.4219   -0.7279    1.1996 C.ar      1 <0>        -0.2818
      8 C7          0.2403   -0.0941    2.4537 C.ar      1 <0>         0.5255
      9 N2          0.0801   -0.8575    3.5253 N.ar      1 <0>        -0.6180
     10 C8          0.0882   -2.1844    3.4357 C.ar      1 <0>         0.6248
     11 N3          0.2432   -2.8239    2.2916 N.ar      1 <0>        -0.5924
     12 N4         -0.0838   -2.9256    4.5891 N.pl3     1 <0>        -0.8111
     13 N5          0.2308    1.2796    2.5567 N.pl3     1 <0>        -0.8446
     14 C9          0.9696    0.0364   -2.4489 C.3       1 <0>         0.0931
     15 N6          2.3660    0.4809   -2.5515 N.3       1 <0>        -0.4369
     16 N7          2.5809    1.1537   -3.7207 N.pl3     1 <0>        -0.5971
     17 C10         3.8520    1.6621   -4.0122 C.ar      1 <0>         0.2061
     18 C11         4.8937    1.4784   -3.1182 C.ar      1 <0>        -0.1441
     19 C12         6.1577    1.9861   -3.4119 C.ar      1 <0>        -0.0354
     20 C13         6.3696    2.6767   -4.6037 C.ar      1 <0>        -0.1255
     21 C14         5.3288    2.8582   -5.4921 C.ar      1 <0>        -0.1595
     22 C15         4.0720    2.3489   -5.2053 C.ar      1 <0>         0.0589
     23 O1          3.0509    2.5246   -6.0859 O.3       1 <0>        -0.3241
     24 C16         3.3467    3.2376   -7.2884 C.3       1 <0>         0.0314
     25 C17         7.2764    1.7921   -2.4569 C.ar      1 <0>        -0.0384
     26 C18         7.0676    1.0972   -1.2672 C.ar      1 <0>        -0.1111
     27 C19         8.1120    0.9192   -0.3826 C.ar      1 <0>        -0.1177
     28 C20         9.3641    1.4292   -0.6752 C.ar      1 <0>        -0.1215
     29 C21         9.5770    2.1198   -1.8547 C.ar      1 <0>        -0.1177
     30 C22         8.5411    2.2991   -2.7490 C.ar      1 <0>        -0.1126
     31 H1          1.5940    1.8644    0.3030 H         1 <0>         0.0912
     32 H2          0.3472    1.8760   -0.9673 H         1 <0>         0.0844
     33 H3         -0.1295    1.8674    0.7476 H         1 <0>         0.0941
     34 H4          0.9004   -2.6280   -2.0567 H         1 <0>         0.1633
     35 H5         -0.2071   -2.4769    5.4402 H         1 <0>         0.4161
     36 H6         -0.0814   -3.8947    4.5477 H         1 <0>         0.4186
     37 H7         -0.4109    1.7180    3.1371 H         1 <0>         0.4102
     38 H8          0.8658    1.8084    2.0488 H         1 <0>         0.4196
     39 H9          0.7374   -0.6273   -3.2818 H         1 <0>         0.0536
     40 H10         0.3092    0.9030   -2.4798 H         1 <0>         0.0957
     41 H11         3.0010   -0.2980   -2.4605 H         1 <0>         0.3286
     42 H12         1.8526    1.2792   -4.3490 H         1 <0>         0.4081
     43 H13         4.7266    0.9431   -2.1951 H         1 <0>         0.1356
     44 H14         7.3489    3.0705   -4.8322 H         1 <0>         0.1250
     45 H15         5.4953    3.3941   -6.4149 H         1 <0>         0.1305
     46 H16         2.4474    3.3067   -7.9005 H         1 <0>         0.0984
     47 H17         3.6951    4.2402   -7.0401 H         1 <0>         0.0550
     48 H18         4.1233    2.7099   -7.8420 H         1 <0>         0.0545
     49 H19         6.0904    0.6989   -1.0375 H         1 <0>         0.1241
     50 H20         7.9513    0.3812    0.5399 H         1 <0>         0.1224
     51 H21        10.1784    1.2879    0.0200 H         1 <0>         0.1215
     52 H22        10.5566    2.5158   -2.0781 H         1 <0>         0.1233
     53 H23         8.7094    2.8349   -3.6715 H         1 <0>         0.1250
@<TRIPOS>BOND
     1    1    2 1
     2    1   31 1
     3    1   32 1
     4    1   33 1
     5    2    7 ar
     6    2    3 ar
     7    3    4 ar
     8    3   14 1
     9    4    5 ar
    10    4   34 1
    11    5    6 ar
    12    6   11 ar
    13    6    7 ar
    14    7    8 ar
    15    8    9 ar
    16    8   13 1
    17    9   10 ar
    18   10   11 ar
    19   10   12 1
    20   12   35 1
    21   12   36 1
    22   13   37 1
    23   13   38 1
    24   14   15 1
    25   14   39 1
    26   14   40 1
    27   15   16 1
    28   15   41 1
    29   16   17 1
    30   16   42 1
    31   17   22 ar
    32   17   18 ar
    33   18   19 ar
    34   18   43 1
    35   19   20 ar
    36   19   25 1
    37   20   21 ar
    38   20   44 1
    39   21   22 ar
    40   21   45 1
    41   22   23 1
    42   23   24 1
    43   24   46 1
    44   24   47 1
    45   24   48 1
    46   25   30 ar
    47   25   26 ar
    48   26   27 ar
    49   26   49 1
    50   27   28 ar
    51   27   50 1
    52   28   29 ar
    53   28   51 1
    54   29   30 ar
    55   29   52 1
    56   30   53 1
@<TRIPOS>MOLECULE
CHEMBL276954
   40    43     0     0     0
SMALL
USER_CHARGES

@<TRIPOS>ATOM
      1 C1         -0.0164    1.3567    0.0095 C.ar      1 <0>        -0.1167
      2 C2          1.1685    2.0906    0.0021 C.ar      1 <0>        -0.1143
      3 C3          2.3785    1.4679   -0.0132 C.ar      1 <0>        -0.1100
      4 C4          2.4378    0.0637   -0.0214 C.ar      1 <0>        -0.0451
      5 C5          1.2328   -0.6827   -0.0134 C.ar      1 <0>        -0.0513
      6 C6          0.0021   -0.0041    0.0020 C.ar      1 <0>        -0.1060
      7 C7          1.2920   -2.0865   -0.0210 C.ar      1 <0>        -0.1084
      8 C8          2.5022   -2.7094   -0.0359 C.ar      1 <0>        -0.1138
      9 C9          3.6867   -1.9757   -0.0433 C.ar      1 <0>        -0.1111
     10 C10         3.6681   -0.6146   -0.0367 C.ar      1 <0>        -0.0702
     11 C11         4.9603    0.1606   -0.0459 C.3       1 <0>        -0.0756
     12 C12         5.3473    0.5240    1.3890 C.3       1 <0>        -0.0552
     13 C13         6.6395    1.2993    1.3799 C.ar      1 <0>         0.0482
     14 C14         6.6153    2.6795    1.1819 C.ar      1 <0>         0.1442
     15 N1          7.7307    3.3780    1.1703 N.ar      1 <0>        -0.4389
     16 C15         8.8989    2.7568    1.3502 C.ar      1 <0>         0.3698
     17 C16         8.9178    1.3540    1.5510 C.ar      1 <0>        -0.0893
     18 N2          7.7795    0.6679    1.5642 N.ar      1 <0>        -0.3786
     19 C17        10.2174    0.7088    1.7452 C.ar      1 <0>         0.5429
     20 N3         11.2970    1.4780    1.7212 N.ar      1 <0>        -0.6276
     21 C18        11.2054    2.7899    1.5276 C.ar      1 <0>         0.6395
     22 N4         10.0617    3.4203    1.3477 N.ar      1 <0>        -0.6016
     23 N5         12.3708    3.5323    1.5141 N.pl3     1 <0>        -0.8068
     24 N6         10.3152   -0.6506    1.9465 N.pl3     1 <0>        -0.7920
     25 H1         -0.9634    1.8756    0.0259 H         1 <0>         0.1229
     26 H2          1.1258    3.1698    0.0084 H         1 <0>         0.1238
     27 H3          3.2883    2.0497   -0.0195 H         1 <0>         0.1284
     28 H4         -0.9241   -0.5595    0.0082 H         1 <0>         0.1264
     29 H5          0.3820   -2.6682   -0.0147 H         1 <0>         0.1262
     30 H6          2.5450   -3.7886   -0.0417 H         1 <0>         0.1233
     31 H7          4.6338   -2.4947   -0.0548 H         1 <0>         0.1232
     32 H8          5.7467   -0.4491   -0.4909 H         1 <0>         0.0786
     33 H9          4.8331    1.0722   -0.6299 H         1 <0>         0.0783
     34 H10         4.5609    1.1338    1.8340 H         1 <0>         0.0893
     35 H11         5.4745   -0.3875    1.9730 H         1 <0>         0.0892
     36 H12         5.6700    3.1811    1.0361 H         1 <0>         0.1789
     37 H13        13.2265    3.0942    1.6438 H         1 <0>         0.4172
     38 H14        12.3332    4.4915    1.3748 H         1 <0>         0.4199
     39 H15         9.5143   -1.1975    1.9613 H         1 <0>         0.4258
     40 H16        11.1850   -1.0607    2.0734 H         1 <0>         0.4163
@<TRIPOS>BOND
     1    1    6 ar
     2    1    2 ar
     3    1   25 1
     4    2    3 ar
     5    2   26 1
     6    3    4 ar
     7    3   27 1
     8    4   10 ar
     9    4    5 ar
    10    5    6 ar
    11    5    7 ar
    12    6   28 1
    13    7    8 ar
    14    7   29 1
    15    8    9 ar
    16    8   30 1
    17    9   10 ar
    18    9   31 1
    19   10   11 1
    20   11   12 1
    21   11   32 1
    22   11   33 1
    23   12   13 1
    24   12   34 1
    25   12   35 1
    26   13   18 ar
    27   13   14 ar
    28   14   15 ar
    29   14   36 1
    30   15   16 ar
    31   16   22 ar
    32   16   17 ar
    33   17   18 ar
    34   17   19 ar
    35   19   20 ar
    36   19   24 1
    37   20   21 ar
    38   21   22 ar
    39   21   23 1
    40   23   37 1
    41   23   38 1
    42   24   39 1
    43   24   40 1
@<TRIPOS>MOLECULE
CHEMBL79182
   39    41     0     0     0
SMALL
USER_CHARGES

@<TRIPOS>ATOM
      1 C1          0.6034    1.5059    0.0257 C.3       1 <0>        -0.1701
      2 C2          0.5985   -0.0011    0.0168 C.ar      1 <0>         0.0649
      3 C3          0.7721   -0.7002   -1.1491 C.ar      1 <0>        -0.1553
      4 C4          0.7640   -2.0894   -1.1306 C.ar      1 <0>         0.2407
      5 N1          0.5930   -2.7658   -0.0166 N.ar      1 <0>        -0.4956
      6 C5          0.4190   -2.1439    1.1497 C.ar      1 <0>         0.4017
      7 C6          0.4223   -0.7279    1.1996 C.ar      1 <0>        -0.2353
      8 C7          0.2403   -0.0941    2.4537 C.ar      1 <0>         0.5790
      9 N2          0.0798   -0.8575    3.5253 N.ar      1 <0>        -0.5778
     10 C8          0.0879   -2.1844    3.4357 C.ar      1 <0>         0.6990
     11 N3          0.2432   -2.8239    2.2916 N.ar      1 <0>        -0.5712
     12 N4         -0.0845   -2.9256    4.5890 N.pl3     1 <0>        -0.7775
     13 N5          0.2308    1.2796    2.5567 N.pl3     1 <0>        -0.8028
     14 C9          0.9709    0.0364   -2.4487 C.3       1 <0>         0.1099
     15 O1          1.1281   -0.9061   -3.5112 O.3       1 <0>        -0.3539
     16 C10         1.3167   -0.4073   -4.7483 C.2       1 <0>         0.5199
     17 O2          1.3469    0.7947   -4.9204 O.2       1 <0>        -0.4921
     18 C11         1.4868   -1.3223   -5.8956 C.ar      1 <0>        -0.1349
     19 C12         1.4469   -2.7045   -5.7022 C.ar      1 <0>        -0.0634
     20 C13         1.6065   -3.5531   -6.7779 C.ar      1 <0>        -0.1322
     21 C14         1.8057   -3.0374   -8.0464 C.ar      1 <0>        -0.0752
     22 C15         1.8467   -1.6687   -8.2451 C.ar      1 <0>        -0.1276
     23 C16         1.6824   -0.8086   -7.1791 C.ar      1 <0>        -0.0507
     24 H1          1.5945    1.8643    0.3040 H         1 <0>         0.1098
     25 H2          0.3488    1.8760   -0.9674 H         1 <0>         0.1037
     26 H3         -0.1294    1.8674    0.7470 H         1 <0>         0.1091
     27 H4          0.9016   -2.6280   -2.0566 H         1 <0>         0.1995
     28 H5         -0.2079   -2.4769    5.4401 H         1 <0>         0.4481
     29 H6         -0.0821   -3.8947    4.5476 H         1 <0>         0.4338
     30 H7         -0.4109    1.7180    3.1371 H         1 <0>         0.4311
     31 H8          0.8658    1.8084    2.0488 H         1 <0>         0.4362
     32 H9          0.1029    0.6653   -2.6463 H         1 <0>         0.1001
     33 H10         1.8629    0.6592   -2.3805 H         1 <0>         0.1001
     34 H11         1.2918   -3.1083   -4.7126 H         1 <0>         0.1354
     35 H12         1.5762   -4.6225   -6.6297 H         1 <0>         0.1351
     36 H13         1.9301   -3.7063   -8.8851 H         1 <0>         0.1344
     37 H14         2.0033   -1.2728   -9.2376 H         1 <0>         0.1379
     38 H15         1.7098    0.2595   -7.3363 H         1 <0>         0.1400
     39 H16         0.2412   -3.7938    2.2786 H         1 <0>         0.4461
@<TRIPOS>BOND
     1    1    2 1
     2    1   24 1
     3    1   25 1
     4    1   26 1
     5    2    7 ar
     6    2    3 ar
     7    3    4 ar
     8    3   14 1
     9    4    5 ar
    10    4   27 1
    11    5    6 ar
    12    6   11 ar
    13    6    7 ar
    14    7    8 ar
    15    8    9 ar
    16    8   13 1
    17    9   10 ar
    18   10   11 ar
    19   10   12 1
    20   11   39 1
    21   12   28 1
    22   12   29 1
    23   13   30 1
    24   13   31 1
    25   14   15 1
    26   14   32 1
    27   14   33 1
    28   15   16 1
    29   16   17 2
    30   16   18 1
    31   18   23 ar
    32   18   19 ar
    33   19   20 ar
    34   19   34 1
    35   20   21 ar
    36   20   35 1
    37   21   22 ar
    38   21   36 1
    39   22   23 ar
    40   22   37 1
    41   23   38 1
@<TRIPOS>MOLECULE
CHEMBL79182__1
   38    40     0     0     0
SMALL
USER_CHARGES

@<TRIPOS>ATOM
      1 C1          0.6034    1.5059    0.0257 C.3       1 <0>        -0.1567
      2 C2          0.5985   -0.0011    0.0168 C.ar      1 <0>         0.0471
      3 C3          0.7721   -0.7002   -1.1491 C.ar      1 <0>        -0.1998
      4 C4          0.7640   -2.0894   -1.1306 C.ar      1 <0>         0.2120
      5 N1          0.5930   -2.7658   -0.0166 N.ar      1 <0>        -0.4870
      6 C5          0.4190   -2.1439    1.1497 C.ar      1 <0>         0.4123
      7 C6          0.4223   -0.7279    1.1996 C.ar      1 <0>        -0.2771
      8 C7          0.2403   -0.0941    2.4537 C.ar      1 <0>         0.5241
      9 N2          0.0798   -0.8575    3.5253 N.ar      1 <0>        -0.6162
     10 C8          0.0879   -2.1844    3.4357 C.ar      1 <0>         0.6237
     11 N3          0.2432   -2.8239    2.2916 N.ar      1 <0>        -0.5900
     12 N4         -0.0845   -2.9256    4.5890 N.pl3     1 <0>        -0.8107
     13 N5          0.2308    1.2796    2.5567 N.pl3     1 <0>        -0.8454
     14 C9          0.9709    0.0364   -2.4487 C.3       1 <0>         0.1248
     15 O1          1.1281   -0.9061   -3.5112 O.3       1 <0>        -0.3466
     16 C10         1.3167   -0.4073   -4.7483 C.2       1 <0>         0.5145
     17 O2          1.3469    0.7947   -4.9204 O.2       1 <0>        -0.5008
     18 C11         1.4868   -1.3223   -5.8956 C.ar      1 <0>        -0.1292
     19 C12         1.4469   -2.7045   -5.7022 C.ar      1 <0>        -0.0611
     20 C13         1.6065   -3.5531   -6.7779 C.ar      1 <0>        -0.1325
     21 C14         1.8057   -3.0374   -8.0464 C.ar      1 <0>        -0.0812
     22 C15         1.8467   -1.6687   -8.2451 C.ar      1 <0>        -0.1315
     23 C16         1.6824   -0.8086   -7.1791 C.ar      1 <0>        -0.0541
     24 H1          1.5945    1.8643    0.3040 H         1 <0>         0.0902
     25 H2          0.3488    1.8760   -0.9674 H         1 <0>         0.0827
     26 H3         -0.1294    1.8674    0.7470 H         1 <0>         0.1030
     27 H4          0.9016   -2.6280   -2.0566 H         1 <0>         0.1738
     28 H5         -0.2079   -2.4769    5.4401 H         1 <0>         0.4161
     29 H6         -0.0821   -3.8947    4.5476 H         1 <0>         0.4188
     30 H7         -0.4109    1.7180    3.1371 H         1 <0>         0.4109
     31 H8          0.8658    1.8084    2.0488 H         1 <0>         0.4185
     32 H9          0.1029    0.6653   -2.6463 H         1 <0>         0.0852
     33 H10         1.8629    0.6592   -2.3805 H         1 <0>         0.0850
     34 H11         1.2918   -3.1083   -4.7126 H         1 <0>         0.1396
     35 H12         1.5762   -4.6225   -6.6297 H         1 <0>         0.1340
     36 H13         1.9301   -3.7063   -8.8851 H         1 <0>         0.1311
     37 H14         2.0033   -1.2728   -9.2376 H         1 <0>         0.1342
     38 H15         1.7098    0.2595   -7.3363 H         1 <0>         0.1382
@<TRIPOS>BOND
     1    1    2 1
     2    1   24 1
     3    1   25 1
     4    1   26 1
     5    2    7 ar
     6    2    3 ar
     7    3    4 ar
     8    3   14 1
     9    4    5 ar
    10    4   27 1
    11    5    6 ar
    12    6   11 ar
    13    6    7 ar
    14    7    8 ar
    15    8    9 ar
    16    8   13 1
    17    9   10 ar
    18   10   11 ar
    19   10   12 1
    20   12   28 1
    21   12   29 1
    22   13   30 1
    23   13   31 1
    24   14   15 1
    25   14   32 1
    26   14   33 1
    27   15   16 1
    28   16   17 2
    29   16   18 1
    30   18   23 ar
    31   18   19 ar
    32   19   20 ar
    33   19   34 1
    34   20   21 ar
    35   20   35 1
    36   21   22 ar
    37   21   36 1
    38   22   23 ar
    39   22   37 1
    40   23   38 1
@<TRIPOS>MOLECULE
CHEMBL606039
   39    41     0     0     0
SMALL
USER_CHARGES

@<TRIPOS>ATOM
      1 C1          0.7593    1.3443    0.0841 C.3       1 <0>        -0.1242
      2 C2          0.3208   -0.0975    0.0755 C.2       1 <0>         0.0052
      3 C3         -0.1347   -0.6681    1.2039 C.2       1 <0>        -0.1369
      4 C4         -0.4047   -2.1149    1.2401 C.2       1 <0>        -0.0563
      5 C5          0.0459   -3.0554    0.3697 C.2       1 <0>         0.0066
      6 O1         -0.4123   -4.2668    0.7323 O.3       1 <0>        -0.1446
      7 C6         -1.1731   -4.1902    1.8376 C.ar      1 <0>         0.3172
      8 C7         -1.2144   -2.8444    2.2315 C.ar      1 <0>        -0.2597
      9 C8         -1.9448   -2.4912    3.3717 C.ar      1 <0>         0.5802
     10 N1         -2.5731   -3.4518    4.0441 N.ar      1 <0>        -0.5775
     11 C9         -2.5089   -4.7148    3.6434 C.ar      1 <0>         0.6970
     12 N2         -1.8352   -5.0855    2.5667 N.ar      1 <0>        -0.5520
     13 N3         -3.1791   -5.6805    4.3750 N.pl3     1 <0>        -0.7838
     14 N4         -2.0115   -1.1743    3.7900 N.pl3     1 <0>        -0.7679
     15 C10         0.3914   -0.8813   -1.1695 C.ar      1 <0>        -0.1240
     16 C11        -0.7763   -1.1939   -1.8701 C.ar      1 <0>        -0.0632
     17 C12        -0.7030   -1.9282   -3.0352 C.ar      1 <0>        -0.1519
     18 C13         0.5231   -2.3572   -3.5139 C.ar      1 <0>        -0.0651
     19 C14         1.6858   -2.0546   -2.8295 C.ar      1 <0>        -0.2082
     20 C15         1.6312   -1.3130   -1.6615 C.ar      1 <0>         0.1328
     21 O2          2.7737   -1.0102   -0.9917 O.3       1 <0>        -0.3092
     22 C16         3.9996   -1.4837   -1.5529 C.3       1 <0>         0.0218
     23 H1          1.8210    1.3997    0.3244 H         1 <0>         0.0896
     24 H2          0.5858    1.7827   -0.8986 H         1 <0>         0.0751
     25 H3          0.1882    1.8933    0.8329 H         1 <0>         0.0758
     26 H4         -0.3027   -0.0653    2.0841 H         1 <0>         0.1323
     27 H5          0.6767   -2.8599   -0.4849 H         1 <0>         0.2377
     28 H6         -3.6834   -5.4280    5.1642 H         1 <0>         0.4490
     29 H7         -3.1444   -6.6096    4.0983 H         1 <0>         0.4322
     30 H8         -1.5487   -0.4830    3.2913 H         1 <0>         0.4308
     31 H9         -2.5211   -0.9423    4.5821 H         1 <0>         0.4309
     32 H10        -1.7348   -0.8614   -1.4997 H         1 <0>         0.1341
     33 H11        -1.6059   -2.1700   -3.5762 H         1 <0>         0.1331
     34 H12         0.5717   -2.9317   -4.4270 H         1 <0>         0.1339
     35 H13         2.6385   -2.3935   -3.2090 H         1 <0>         0.1385
     36 H14         3.9752   -2.5718   -1.6134 H         1 <0>         0.0590
     37 H15         4.1266   -1.0671   -2.5521 H         1 <0>         0.0623
     38 H16         4.8321   -1.1735   -0.9214 H         1 <0>         0.1075
     39 H17        -1.8151   -6.0212    2.3119 H         1 <0>         0.4421
@<TRIPOS>BOND
     1    1    2 1
     2    1   23 1
     3    1   24 1
     4    1   25 1
     5    2    3 2
     6    2   15 1
     7    3    4 1
     8    3   26 1
     9    4    8 1
    10    4    5 2
    11    5    6 1
    12    5   27 1
    13    6    7 1
    14    7   12 ar
    15    7    8 ar
    16    8    9 ar
    17    9   10 ar
    18    9   14 1
    19   10   11 ar
    20   11   12 ar
    21   11   13 1
    22   12   39 1
    23   13   28 1
    24   13   29 1
    25   14   30 1
    26   14   31 1
    27   15   20 ar
    28   15   16 ar
    29   16   17 ar
    30   16   32 1
    31   17   18 ar
    32   17   33 1
    33   18   19 ar
    34   18   34 1
    35   19   20 ar
    36   19   35 1
    37   20   21 1
    38   21   22 1
    39   22   36 1
    40   22   37 1
    41   22   38 1
@<TRIPOS>MOLECULE
CHEMBL606039__1
   38    40     0     0     0
SMALL
USER_CHARGES

@<TRIPOS>ATOM
      1 C1          0.7593    1.3443    0.0841 C.3       1 <0>        -0.1105
      2 C2          0.3208   -0.0975    0.0755 C.2       1 <0>        -0.0553
      3 C3         -0.1347   -0.6681    1.2039 C.2       1 <0>        -0.0893
      4 C4         -0.4047   -2.1149    1.2401 C.2       1 <0>        -0.0931
      5 C5          0.0459   -3.0554    0.3697 C.2       1 <0>        -0.0116
      6 O1         -0.4123   -4.2668    0.7323 O.3       1 <0>        -0.1756
      7 C6         -1.1731   -4.1902    1.8376 C.ar      1 <0>         0.3657
      8 C7         -1.2144   -2.8444    2.2315 C.ar      1 <0>        -0.3289
      9 C8         -1.9448   -2.4912    3.3717 C.ar      1 <0>         0.5331
     10 N1         -2.5731   -3.4518    4.0441 N.ar      1 <0>        -0.6299
     11 C9         -2.5089   -4.7148    3.6434 C.ar      1 <0>         0.6353
     12 N2         -1.8352   -5.0855    2.5667 N.ar      1 <0>        -0.5982
     13 N3         -3.1791   -5.6805    4.3750 N.pl3     1 <0>        -0.8135
     14 N4         -2.0115   -1.1743    3.7900 N.pl3     1 <0>        -0.8240
     15 C10         0.3914   -0.8813   -1.1695 C.ar      1 <0>        -0.0928
     16 C11        -0.7763   -1.1939   -1.8701 C.ar      1 <0>        -0.0630
     17 C12        -0.7030   -1.9282   -3.0352 C.ar      1 <0>        -0.1516
     18 C13         0.5231   -2.3572   -3.5139 C.ar      1 <0>        -0.0748
     19 C14         1.6858   -2.0546   -2.8295 C.ar      1 <0>        -0.2100
     20 C15         1.6312   -1.3130   -1.6615 C.ar      1 <0>         0.1276
     21 O2          2.7737   -1.0102   -0.9917 O.3       1 <0>        -0.3078
     22 C16         3.9996   -1.4837   -1.5529 C.3       1 <0>         0.0239
     23 H1          1.8210    1.3997    0.3244 H         1 <0>         0.0779
     24 H2          0.5858    1.7827   -0.8986 H         1 <0>         0.0657
     25 H3          0.1882    1.8933    0.8329 H         1 <0>         0.0681
     26 H4         -0.3027   -0.0653    2.0841 H         1 <0>         0.1228
     27 H5          0.6767   -2.8599   -0.4849 H         1 <0>         0.2145
     28 H6         -3.6834   -5.4280    5.1642 H         1 <0>         0.4177
     29 H7         -3.1444   -6.6096    4.0983 H         1 <0>         0.4172
     30 H8         -1.5487   -0.4830    3.2913 H         1 <0>         0.4121
     31 H9         -2.5211   -0.9423    4.5821 H         1 <0>         0.4100
     32 H10        -1.7348   -0.8614   -1.4997 H         1 <0>         0.1315
     33 H11        -1.6059   -2.1700   -3.5762 H         1 <0>         0.1286
     34 H12         0.5717   -2.9317   -4.4270 H         1 <0>         0.1284
     35 H13         2.6385   -2.3935   -3.2090 H         1 <0>         0.1328
     36 H14         3.9752   -2.5718   -1.6134 H         1 <0>         0.0572
     37 H15         4.1266   -1.0671   -2.5521 H         1 <0>         0.0573
     38 H16         4.8321   -1.1735   -0.9214 H         1 <0>         0.1026
@<TRIPOS>BOND
     1    1    2 1
     2    1   23 1
     3    1   24 1
     4    1   25 1
     5    2    3 2
     6    2   15 1
     7    3    4 1
     8    3   26 1
     9    4    8 1
    10    4    5 2
    11    5    6 1
    12    5   27 1
    13    6    7 1
    14    7   12 ar
    15    7    8 ar
    16    8    9 ar
    17    9   10 ar
    18    9   14 1
    19   10   11 ar
    20   11   12 ar
    21   11   13 1
    22   13   28 1
    23   13   29 1
    24   14   30 1
    25   14   31 1
    26   15   20 ar
    27   15   16 ar
    28   16   17 ar
    29   16   32 1
    30   17   18 ar
    31   17   33 1
    32   18   19 ar
    33   18   34 1
    34   19   20 ar
    35   19   35 1
    36   20   21 1
    37   21   22 1
    38   22   36 1
    39   22   37 1
    40   22   38 1
@<TRIPOS>MOLECULE
CHEMBL149164
   69    72     0     0     0
SMALL
USER_CHARGES

@<TRIPOS>ATOM
      1 C1          0.4041    1.3182    0.9527 C.ar      1 <0>        -0.1358
      2 C2          0.9300    2.0680   -0.0842 C.ar      1 <0>        -0.1260
      3 C3          1.7203    1.4711   -1.0484 C.ar      1 <0>        -0.0941
      4 C4          1.9918    0.1063   -0.9789 C.ar      1 <0>        -0.0927
      5 C5          1.4567   -0.6561    0.0769 C.ar      1 <0>        -0.0952
      6 C6          0.6630   -0.0376    1.0378 C.ar      1 <0>        -0.1121
      7 C7          1.7360   -2.1069    0.1636 C.2       1 <0>         0.5705
      8 O1          2.8840   -2.5057    0.1651 O.2       1 <0>        -0.4923
      9 N1          0.7172   -2.9859    0.2408 N.am      1 <0>        -0.7358
     10 C8          0.9937   -4.4220    0.3266 C.3       1 <0>         0.1247
     11 C9         -0.3263   -5.1919    0.4031 C.3       1 <0>        -0.1247
     12 C10        -0.0375   -6.6917    0.4927 C.3       1 <0>        -0.1080
     13 C11        -1.3575   -7.4615    0.5692 C.3       1 <0>         0.0786
     14 C12        -1.0733   -8.9263    0.7807 C.2       1 <0>         0.4937
     15 O2         -0.9830   -9.3726    1.9117 O.co2     1 <0>        -0.6945
     16 O3         -0.9336   -9.6650   -0.1791 O.co2     1 <0>        -0.6929
     17 N2         -2.0997   -7.2837   -0.6813 N.am      1 <0>        -0.6852
     18 C13        -3.4412   -7.4133   -0.6931 C.2       1 <0>         0.5504
     19 O4         -4.0355   -7.6778    0.3343 O.2       1 <0>        -0.5508
     20 C14        -4.1885   -7.2343   -1.9523 C.ar      1 <0>        -0.1590
     21 C15        -3.5062   -6.9360   -3.1354 C.ar      1 <0>        -0.0359
     22 C16        -4.2061   -6.7700   -4.3085 C.ar      1 <0>        -0.1919
     23 C17        -5.5924   -6.8986   -4.3179 C.ar      1 <0>         0.2174
     24 C18        -6.2748   -7.1952   -3.1412 C.ar      1 <0>        -0.2035
     25 C19        -5.5800   -7.3684   -1.9661 C.ar      1 <0>        -0.0172
     26 N3         -6.2967   -6.7299   -5.5048 N.pl3     1 <0>        -0.7451
     27 C20        -7.7555   -6.8648   -5.5163 C.3       1 <0>         0.1710
     28 C21        -8.2700   -6.6364   -6.9142 C.ar      1 <0>         0.1403
     29 C22        -8.4951   -7.7336   -7.7428 C.ar      1 <0>        -0.0623
     30 C23        -8.9621   -7.5459   -9.0137 C.ar      1 <0>        -0.0929
     31 C24        -9.2010   -6.2290   -9.4421 C.ar      1 <0>         0.1462
     32 C25        -8.9496   -5.1629   -8.5458 C.ar      1 <0>         0.0228
     33 N4         -8.4999   -5.4092   -7.3190 N.ar      1 <0>        -0.3997
     34 C26        -9.2078   -3.8025   -9.0201 C.ar      1 <0>         0.5742
     35 N5         -9.6601   -3.6560  -10.2574 N.ar      1 <0>        -0.5900
     36 C27        -9.8738   -4.7052  -11.0452 C.ar      1 <0>         0.6967
     37 N6         -9.6586   -5.9497  -10.6689 N.ar      1 <0>        -0.5814
     38 N7        -10.3470   -4.4791  -12.3253 N.pl3     1 <0>        -0.7877
     39 N8         -8.9885   -2.7105   -8.2074 N.pl3     1 <0>        -0.7343
     40 C28         2.8352   -0.5368   -2.0066 C.2       1 <0>         0.5119
     41 O5          3.3975    0.1459   -2.8509 O.co2     1 <0>        -0.6947
     42 O6          2.9712   -1.7519   -2.0132 O.co2     1 <0>        -0.6493
     43 H1         -0.2088    1.7956    1.7030 H         1 <0>         0.1165
     44 H2          0.7214    3.1262   -0.1409 H         1 <0>         0.1153
     45 H3          2.1270    2.0623   -1.8555 H         1 <0>         0.1292
     46 H4          0.2490   -0.6164    1.8502 H         1 <0>         0.1197
     47 H5         -0.1991   -2.6676    0.2395 H         1 <0>         0.3903
     48 H6          1.5483   -4.7387   -0.5568 H         1 <0>         0.0673
     49 H7          1.5852   -4.6255    1.2192 H         1 <0>         0.0618
     50 H8         -0.8809   -4.8752    1.2864 H         1 <0>         0.0648
     51 H9         -0.9178   -4.9884   -0.4896 H         1 <0>         0.0629
     52 H10         0.5171   -7.0083   -0.3906 H         1 <0>         0.0690
     53 H11         0.5540   -6.8951    1.3853 H         1 <0>         0.0806
     54 H12        -1.9513   -7.0828    1.4011 H         1 <0>         0.0836
     55 H13        -1.6257   -7.0728   -1.5009 H         1 <0>         0.3913
     56 H14        -2.4309   -6.8354   -3.1286 H         1 <0>         0.1312
     57 H15        -3.6796   -6.5395   -5.2228 H         1 <0>         0.1234
     58 H16        -7.3502   -7.2939   -3.1516 H         1 <0>         0.1218
     59 H17        -6.1095   -7.6032   -1.0546 H         1 <0>         0.1361
     60 H18        -5.8223   -6.5228   -6.3251 H         1 <0>         0.3988
     61 H19        -8.0303   -7.8669   -5.1872 H         1 <0>         0.0919
     62 H20        -8.1938   -6.1282   -4.8430 H         1 <0>         0.0903
     63 H21        -8.3004   -8.7324   -7.3810 H         1 <0>         0.1745
     64 H22        -9.1418   -8.3850   -9.6694 H         1 <0>         0.1724
     65 H23       -10.5144   -3.5727  -12.6274 H         1 <0>         0.4451
     66 H24       -10.5114   -5.2270  -12.9207 H         1 <0>         0.4305
     67 H25        -8.6575   -2.8367   -7.3044 H         1 <0>         0.4450
     68 H26        -9.1651   -1.8161   -8.5387 H         1 <0>         0.4341
     69 H27        -9.8338   -6.6739  -11.2900 H         1 <0>         0.4390
@<TRIPOS>BOND
     1    1    6 ar
     2    1    2 ar
     3    1   43 1
     4    2    3 ar
     5    2   44 1
     6    3    4 ar
     7    3   45 1
     8    4    5 ar
     9    4   40 1
    10    5    6 ar
    11    5    7 1
    12    6   46 1
    13    7    8 2
    14    7    9 am
    15    9   10 1
    16    9   47 1
    17   10   11 1
    18   10   48 1
    19   10   49 1
    20   11   12 1
    21   11   50 1
    22   11   51 1
    23   12   13 1
    24   12   52 1
    25   12   53 1
    26   13   14 1
    27   13   17 1
    28   13   54 1
    29   14   15 2
    30   14   16 1
    31   17   18 am
    32   17   55 1
    33   18   19 2
    34   18   20 1
    35   20   25 ar
    36   20   21 ar
    37   21   22 ar
    38   21   56 1
    39   22   23 ar
    40   22   57 1
    41   23   24 ar
    42   23   26 1
    43   24   25 ar
    44   24   58 1
    45   25   59 1
    46   26   27 1
    47   26   60 1
    48   27   28 1
    49   27   61 1
    50   27   62 1
    51   28   33 ar
    52   28   29 ar
    53   29   30 ar
    54   29   63 1
    55   30   31 ar
    56   30   64 1
    57   31   37 ar
    58   31   32 ar
    59   32   33 ar
    60   32   34 ar
    61   34   35 ar
    62   34   39 1
    63   35   36 ar
    64   36   37 ar
    65   36   38 1
    66   37   69 1
    67   38   65 1
    68   38   66 1
    69   39   67 1
    70   39   68 1
    71   40   41 2
    72   40   42 1
@<TRIPOS>MOLECULE
CHEMBL149164__1
   69    72     0     0     0
SMALL
USER_CHARGES

@<TRIPOS>ATOM
      1 C1          0.4041    1.3182    0.9527 C.ar      1 <0>        -0.1375
      2 C2          0.9300    2.0680   -0.0842 C.ar      1 <0>        -0.1256
      3 C3          1.7203    1.4711   -1.0484 C.ar      1 <0>        -0.0927
      4 C4          1.9918    0.1063   -0.9789 C.ar      1 <0>        -0.0905
      5 C5          1.4567   -0.6561    0.0769 C.ar      1 <0>        -0.0955
      6 C6          0.6630   -0.0376    1.0378 C.ar      1 <0>        -0.1131
      7 C7          1.7360   -2.1069    0.1636 C.2       1 <0>         0.5705
      8 O1          2.8840   -2.5057    0.1651 O.2       1 <0>        -0.4925
      9 N1          0.7172   -2.9859    0.2408 N.am      1 <0>        -0.7358
     10 C8          0.9937   -4.4220    0.3266 C.3       1 <0>         0.1247
     11 C9         -0.3263   -5.1919    0.4031 C.3       1 <0>        -0.1249
     12 C10        -0.0375   -6.6917    0.4927 C.3       1 <0>        -0.1063
     13 C11        -1.3575   -7.4615    0.5692 C.3       1 <0>         0.0769
     14 C12        -1.0784   -8.9420    0.5336 C.2       1 <0>         0.4928
     15 O2         -1.2554   -9.6199    1.5315 O.co2     1 <0>        -0.6932
     16 O3         -0.6756   -9.4619   -0.4930 O.co2     1 <0>        -0.6934
     17 N2         -2.0478   -7.1245    1.8167 N.am      1 <0>        -0.6839
     18 C13        -3.3873   -7.2480    1.9003 C.2       1 <0>         0.5535
     19 O4         -4.0229   -7.6392    0.9403 O.2       1 <0>        -0.5504
     20 C14        -4.0823   -6.9087    3.1565 C.ar      1 <0>        -0.1552
     21 C15        -3.3537   -6.4534    4.2592 C.ar      1 <0>        -0.0376
     22 C16        -4.0050   -6.1372    5.4294 C.ar      1 <0>        -0.1930
     23 C17        -5.3880   -6.2708    5.5160 C.ar      1 <0>         0.2159
     24 C18        -6.1165   -6.7244    4.4197 C.ar      1 <0>        -0.2023
     25 C19        -5.4717   -7.0363    3.2447 C.ar      1 <0>        -0.0172
     26 N3         -6.0432   -5.9509    6.7000 N.pl3     1 <0>        -0.7453
     27 C20        -7.4985   -6.0909    6.7928 C.3       1 <0>         0.1707
     28 C21        -7.9556   -5.6831    8.1697 C.ar      1 <0>         0.1406
     29 C22        -8.4016   -4.3800    8.3790 C.ar      1 <0>        -0.0621
     30 C23        -8.8205   -3.9922    9.6210 C.ar      1 <0>        -0.0927
     31 C24        -8.7839   -4.9412   10.6569 C.ar      1 <0>         0.1462
     32 C25        -8.3186   -6.2468   10.3709 C.ar      1 <0>         0.0225
     33 N4         -7.9287   -6.5661    9.1405 N.ar      1 <0>        -0.4000
     34 C26        -8.2920   -7.2135   11.4697 C.ar      1 <0>         0.5743
     35 N5         -8.7049   -6.8047   12.6610 N.ar      1 <0>        -0.5903
     36 C27        -9.1299   -5.5605   12.8572 C.ar      1 <0>         0.6967
     37 N6         -9.1748   -4.6514   11.9042 N.ar      1 <0>        -0.5813
     38 N7         -9.5470   -5.2019   14.1264 N.pl3     1 <0>        -0.7875
     39 N8         -7.8528   -8.5054   11.2722 N.pl3     1 <0>        -0.7351
     40 C28         2.8352   -0.5368   -2.0066 C.2       1 <0>         0.5107
     41 O5          3.3975    0.1459   -2.8509 O.co2     1 <0>        -0.6930
     42 O6          2.9712   -1.7519   -2.0132 O.co2     1 <0>        -0.6481
     43 H1         -0.2088    1.7956    1.7030 H         1 <0>         0.1149
     44 H2          0.7214    3.1262   -0.1409 H         1 <0>         0.1154
     45 H3          2.1270    2.0623   -1.8555 H         1 <0>         0.1302
     46 H4          0.2490   -0.6164    1.8502 H         1 <0>         0.1177
     47 H5         -0.1991   -2.6676    0.2395 H         1 <0>         0.3904
     48 H6          1.5483   -4.7387   -0.5568 H         1 <0>         0.0696
     49 H7          1.5852   -4.6255    1.2192 H         1 <0>         0.0594
     50 H8         -0.8809   -4.8752    1.2864 H         1 <0>         0.0600
     51 H9         -0.9178   -4.9884   -0.4896 H         1 <0>         0.0673
     52 H10         0.5171   -7.0083   -0.3906 H         1 <0>         0.0869
     53 H11         0.5540   -6.8951    1.3853 H         1 <0>         0.0632
     54 H12        -1.9863   -7.1898   -0.2788 H         1 <0>         0.0852
     55 H13        -1.5408   -6.8125    2.5825 H         1 <0>         0.3881
     56 H14        -2.2807   -6.3502    4.1928 H         1 <0>         0.1296
     57 H15        -3.4426   -5.7854    6.2817 H         1 <0>         0.1219
     58 H16        -7.1893   -6.8273    4.4901 H         1 <0>         0.1219
     59 H17        -6.0378   -7.3836    2.3931 H         1 <0>         0.1365
     60 H18        -5.5366   -5.6351    7.4645 H         1 <0>         0.3981
     61 H19        -7.9732   -5.4519    6.0482 H         1 <0>         0.0922
     62 H20        -7.7760   -7.1291    6.6105 H         1 <0>         0.0904
     63 H21        -8.4161   -3.6760    7.5600 H         1 <0>         0.1748
     64 H22        -9.1690   -2.9859    9.8011 H         1 <0>         0.1726
     65 H23        -9.5247   -5.8520   14.8460 H         1 <0>         0.4450
     66 H24        -9.8618   -4.3003   14.2969 H         1 <0>         0.4308
     67 H25        -7.5544   -8.7871   10.3932 H         1 <0>         0.4450
     68 H26        -7.8421   -9.1325   12.0121 H         1 <0>         0.4337
     69 H27        -9.4952   -3.7591   12.1095 H         1 <0>         0.4392
@<TRIPOS>BOND
     1    1    6 ar
     2    1    2 ar
     3    1   43 1
     4    2    3 ar
     5    2   44 1
     6    3    4 ar
     7    3   45 1
     8    4    5 ar
     9    4   40 1
    10    5    6 ar
    11    5    7 1
    12    6   46 1
    13    7    8 2
    14    7    9 am
    15    9   10 1
    16    9   47 1
    17   10   11 1
    18   10   48 1
    19   10   49 1
    20   11   12 1
    21   11   50 1
    22   11   51 1
    23   12   13 1
    24   12   52 1
    25   12   53 1
    26   13   14 1
    27   13   17 1
    28   13   54 1
    29   14   15 2
    30   14   16 1
    31   17   18 am
    32   17   55 1
    33   18   19 2
    34   18   20 1
    35   20   25 ar
    36   20   21 ar
    37   21   22 ar
    38   21   56 1
    39   22   23 ar
    40   22   57 1
    41   23   24 ar
    42   23   26 1
    43   24   25 ar
    44   24   58 1
    45   25   59 1
    46   26   27 1
    47   26   60 1
    48   27   28 1
    49   27   61 1
    50   27   62 1
    51   28   33 ar
    52   28   29 ar
    53   29   30 ar
    54   29   63 1
    55   30   31 ar
    56   30   64 1
    57   31   37 ar
    58   31   32 ar
    59   32   33 ar
    60   32   34 ar
    61   34   35 ar
    62   34   39 1
    63   35   36 ar
    64   36   37 ar
    65   36   38 1
    66   37   69 1
    67   38   65 1
    68   38   66 1
    69   39   67 1
    70   39   68 1
    71   40   41 2
    72   40   42 1
@<TRIPOS>MOLECULE
CHEMBL134613
   33    35     0     0     0
SMALL
USER_CHARGES

@<TRIPOS>ATOM
      1 C1         -0.0167    1.3781    0.0096 C.ar      1 <0>        -0.0966
      2 C2          1.1709    2.0855    0.0021 C.ar      1 <0>        -0.1168
      3 C3          2.3773    1.4107   -0.0130 C.ar      1 <0>        -0.0917
      4 C4          2.3960    0.0285   -0.0201 C.ar      1 <0>        -0.1393
      5 C5          1.2084   -0.6789   -0.0117 C.ar      1 <0>        -0.0981
      6 C6          0.0021   -0.0041    0.0020 C.ar      1 <0>        -0.1135
      7 C7          3.7112   -0.7071   -0.0376 C.3       1 <0>         0.1301
      8 N1          4.1518   -0.9524    1.3379 N.pl3     1 <0>        -0.4743
      9 C8          4.9311   -0.0436    1.9986 C.2       1 <0>         0.1126
     10 C9          4.9970   -0.0282    3.3504 C.2       1 <0>        -0.1763
     11 C10         4.3556   -1.0073    4.1226 C.2       1 <0>         0.0382
     12 C11         3.7364   -2.0518    3.4723 C.2       1 <0>        -0.1703
     13 C12         3.7888   -2.0989    2.0014 C.cat     1 <0>         0.5093
     14 N2          3.4748   -3.2148    1.4047 N.pl3     1 <0>        -0.6385
     15 C13         3.2378   -4.4436    2.1543 C.3       1 <0>         0.4829
     16 N3          2.7504   -4.2140    3.5060 N.2       1 <0>        -0.6677
     17 C14         2.9988   -3.1208    4.1607 C.2       1 <0>         0.4781
     18 O1          2.5773   -2.9681    5.4373 O.3       1 <0>        -0.6677
     19 N4          4.4956   -5.1987    2.2297 N.3       1 <0>        -0.8678
     20 H1         -0.9591    1.9053    0.0259 H         1 <0>         0.1308
     21 H2          1.1563    3.1654    0.0076 H         1 <0>         0.1313
     22 H3          3.3051    1.9634   -0.0196 H         1 <0>         0.1275
     23 H4          1.2231   -1.7588   -0.0176 H         1 <0>         0.1182
     24 H5         -0.9258   -0.5567    0.0082 H         1 <0>         0.1309
     25 H6          3.5884   -1.6586   -0.5549 H         1 <0>         0.1007
     26 H7          4.4573   -0.1052   -0.5563 H         1 <0>         0.1257
     27 H8          5.5046    0.6747    1.4315 H         1 <0>         0.1836
     28 H9          5.5551    0.7536    3.8442 H         1 <0>         0.1641
     29 H10         4.3475   -0.9441    5.2008 H         1 <0>         0.1674
     30 H11         2.5047   -5.0448    1.6164 H         1 <0>         0.0824
     31 H12         4.3710   -6.0585    2.7428 H         1 <0>         0.3722
     32 H13         4.8656   -5.3779    1.3082 H         1 <0>         0.3332
     33 H14         3.3964   -3.2282    0.4380 H         1 <0>         0.3995
@<TRIPOS>BOND
     1    1    6 ar
     2    1    2 ar
     3    1   20 1
     4    2    3 ar
     5    2   21 1
     6    3    4 ar
     7    3   22 1
     8    4    5 ar
     9    4    7 1
    10    5    6 ar
    11    5   23 1
    12    6   24 1
    13    7    8 1
    14    7   25 1
    15    7   26 1
    16    8   13 1
    17    8    9 1
    18    9   10 2
    19    9   27 1
    20   10   11 1
    21   10   28 1
    22   11   12 2
    23   11   29 1
    24   12   17 1
    25   12   13 1
    26   13   14 2
    27   14   15 1
    28   14   33 1
    29   15   16 1
    30   15   19 1
    31   15   30 1
    32   16   17 2
    33   17   18 1
    34   19   31 1
    35   19   32 1
@<TRIPOS>MOLECULE
CHEMBL134613__1
   33    35     0     0     0
SMALL
USER_CHARGES

@<TRIPOS>ATOM
      1 C1         -0.0167    1.3781    0.0096 C.ar      1 <0>        -0.1075
      2 C2          1.1709    2.0855    0.0021 C.ar      1 <0>        -0.1218
      3 C3          2.3773    1.4107   -0.0130 C.ar      1 <0>        -0.1009
      4 C4          2.3960    0.0285   -0.0201 C.ar      1 <0>        -0.1217
      5 C5          1.2084   -0.6789   -0.0117 C.ar      1 <0>        -0.0919
      6 C6          0.0021   -0.0041    0.0020 C.ar      1 <0>        -0.1215
      7 C7          3.7112   -0.7071   -0.0376 C.3       1 <0>         0.1487
      8 N1          4.1518   -0.9524    1.3379 N.pl3     1 <0>        -0.4854
      9 C8          4.9301   -0.0447    1.9974 C.2       1 <0>         0.1722
     10 C9          4.9947   -0.0260    3.3507 C.2       1 <0>        -0.2480
     11 C10         4.3521   -1.0012    4.1233 C.2       1 <0>         0.0629
     12 C11         3.7324   -2.0496    3.4728 C.2       1 <0>        -0.2768
     13 C12         3.7882   -2.1005    2.0020 C.2       1 <0>         0.4544
     14 N2          3.4832   -3.2137    1.3987 N.2       1 <0>        -0.6492
     15 C13         3.2355   -4.4497    2.1323 C.3       1 <0>         0.4917
     16 N3          2.7031   -4.2254    3.4696 N.am      1 <0>        -0.7312
     17 C14         2.9946   -3.1117    4.1647 C.2       1 <0>         0.5807
     18 O1          2.6468   -2.9876    5.3241 O.2       1 <0>        -0.5352
     19 N4          4.4978   -5.1927    2.2451 N.3       1 <0>        -0.8468
     20 H1         -0.9591    1.9053    0.0259 H         1 <0>         0.1247
     21 H2          1.1563    3.1654    0.0076 H         1 <0>         0.1256
     22 H3          3.3051    1.9634   -0.0196 H         1 <0>         0.1228
     23 H4          1.2231   -1.7588   -0.0176 H         1 <0>         0.1247
     24 H5         -0.9258   -0.5567    0.0082 H         1 <0>         0.1245
     25 H6          3.5884   -1.6586   -0.5549 H         1 <0>         0.1130
     26 H7          4.4573   -0.1052   -0.5563 H         1 <0>         0.1005
     27 H8          5.5052    0.6718    1.4296 H         1 <0>         0.1681
     28 H9          5.5527    0.7566    3.8433 H         1 <0>         0.1509
     29 H10         4.3418   -0.9350    5.2012 H         1 <0>         0.1452
     30 H11         2.5249   -5.0548    1.5693 H         1 <0>         0.1229
     31 H12         2.1296   -4.8981    3.8689 H         1 <0>         0.4086
     32 H13         4.8672   -5.4184    1.3337 H         1 <0>         0.3577
     33 H14         5.1724   -4.6785    2.7916 H         1 <0>         0.3383
@<TRIPOS>BOND
     1    1    6 ar
     2    1    2 ar
     3    1   20 1
     4    2    3 ar
     5    2   21 1
     6    3    4 ar
     7    3   22 1
     8    4    5 ar
     9    4    7 1
    10    5    6 ar
    11    5   23 1
    12    6   24 1
    13    7    8 1
    14    7   25 1
    15    7   26 1
    16    8   13 1
    17    8    9 1
    18    9   10 2
    19    9   27 1
    20   10   11 1
    21   10   28 1
    22   11   12 2
    23   11   29 1
    24   12   17 1
    25   12   13 1
    26   13   14 2
    27   14   15 1
    28   15   16 1
    29   15   19 1
    30   15   30 1
    31   16   17 am
    32   16   31 1
    33   17   18 2
    34   19   32 1
    35   19   33 1
@<TRIPOS>MOLECULE
CHEMBL134613__2
   34    36     0     0     0
SMALL
USER_CHARGES

@<TRIPOS>ATOM
      1 C1         -0.0167    1.3781    0.0096 C.ar      1 <0>        -0.0879
      2 C2          1.1709    2.0855    0.0021 C.ar      1 <0>        -0.1118
      3 C3          2.3773    1.4107   -0.0130 C.ar      1 <0>        -0.0887
      4 C4          2.3960    0.0285   -0.0201 C.ar      1 <0>        -0.1512
      5 C5          1.2084   -0.6789   -0.0117 C.ar      1 <0>        -0.1011
      6 C6          0.0021   -0.0041    0.0020 C.ar      1 <0>        -0.1133
      7 C7          3.7112   -0.7071   -0.0376 C.3       1 <0>         0.1252
      8 N1          4.1518   -0.9524    1.3379 N.pl3     1 <0>        -0.4600
      9 C8          4.9301   -0.0447    1.9974 C.2       1 <0>         0.1664
     10 C9          4.9947   -0.0260    3.3507 C.2       1 <0>        -0.1867
     11 C10         4.3529   -1.0017    4.1232 C.2       1 <0>         0.1034
     12 C11         3.7332   -2.0501    3.4727 C.2       1 <0>        -0.2272
     13 C12         3.7882   -2.1005    2.0020 C.cat     1 <0>         0.5215
     14 N2          3.4832   -3.2137    1.3987 N.pl3     1 <0>        -0.6380
     15 C13         3.2351   -4.4496    2.1323 C.3       1 <0>         0.5367
     16 N3          2.7028   -4.2251    3.4696 N.am      1 <0>        -0.7236
     17 C14         2.9961   -3.1127    4.1646 C.2       1 <0>         0.5891
     18 O1          2.6489   -2.9892    5.3242 O.2       1 <0>        -0.4828
     19 N4          4.4970   -5.1930    2.2452 N.3       1 <0>        -0.8687
     20 H1         -0.9591    1.9053    0.0259 H         1 <0>         0.1355
     21 H2          1.1563    3.1654    0.0076 H         1 <0>         0.1363
     22 H3          3.3051    1.9634   -0.0196 H         1 <0>         0.1308
     23 H4          1.2231   -1.7588   -0.0176 H         1 <0>         0.1164
     24 H5         -0.9258   -0.5567    0.0082 H         1 <0>         0.1334
     25 H6          3.5884   -1.6586   -0.5549 H         1 <0>         0.1083
     26 H7          4.4573   -0.1052   -0.5563 H         1 <0>         0.1380
     27 H8          5.5052    0.6718    1.4296 H         1 <0>         0.2026
     28 H9          5.5527    0.7566    3.8433 H         1 <0>         0.1837
     29 H10         4.3431   -0.9360    5.2012 H         1 <0>         0.1811
     30 H11         2.5242   -5.0544    1.5693 H         1 <0>         0.1197
     31 H12         2.1290   -4.8976    3.8689 H         1 <0>         0.4321
     32 H13         4.3638   -6.0572    2.7488 H         1 <0>         0.3821
     33 H14         4.8992   -5.3629    1.3356 H         1 <0>         0.3680
     34 H15         3.4187   -3.2209    0.4309 H         1 <0>         0.4305
@<TRIPOS>BOND
     1    1    6 ar
     2    1    2 ar
     3    1   20 1
     4    2    3 ar
     5    2   21 1
     6    3    4 ar
     7    3   22 1
     8    4    5 ar
     9    4    7 1
    10    5    6 ar
    11    5   23 1
    12    6   24 1
    13    7    8 1
    14    7   25 1
    15    7   26 1
    16    8   13 1
    17    8    9 1
    18    9   10 2
    19    9   27 1
    20   10   11 1
    21   10   28 1
    22   11   12 2
    23   11   29 1
    24   12   17 1
    25   12   13 1
    26   13   14 2
    27   14   15 1
    28   14   34 1
    29   15   16 1
    30   15   19 1
    31   15   30 1
    32   16   17 am
    33   16   31 1
    34   17   18 2
    35   19   32 1
    36   19   33 1
@<TRIPOS>MOLECULE
CHEMBL134613__3
   33    35     0     0     0
SMALL
USER_CHARGES

@<TRIPOS>ATOM
      1 C1         -0.0167    1.3781    0.0096 C.ar      1 <0>        -0.0966
      2 C2          1.1709    2.0855    0.0021 C.ar      1 <0>        -0.1170
      3 C3          2.3773    1.4107   -0.0130 C.ar      1 <0>        -0.0918
      4 C4          2.3960    0.0285   -0.0201 C.ar      1 <0>        -0.1388
      5 C5          1.2084   -0.6789   -0.0117 C.ar      1 <0>        -0.0975
      6 C6          0.0021   -0.0041    0.0020 C.ar      1 <0>        -0.1137
      7 C7          3.7112   -0.7071   -0.0376 C.3       1 <0>         0.1293
      8 N1          4.1518   -0.9524    1.3379 N.pl3     1 <0>        -0.4732
      9 C8          4.9311   -0.0436    1.9986 C.2       1 <0>         0.1161
     10 C9          4.9970   -0.0282    3.3504 C.2       1 <0>        -0.1788
     11 C10         4.3556   -1.0073    4.1226 C.2       1 <0>         0.0415
     12 C11         3.7364   -2.0518    3.4723 C.2       1 <0>        -0.1836
     13 C12         3.7888   -2.0989    2.0014 C.cat     1 <0>         0.4981
     14 N2          3.4748   -3.2148    1.4047 N.pl3     1 <0>        -0.6317
     15 C13         3.2378   -4.4436    2.1543 C.3       1 <0>         0.4714
     16 N3          2.7504   -4.2140    3.5060 N.2       1 <0>        -0.7024
     17 C14         2.9988   -3.1208    4.1607 C.2       1 <0>         0.4719
     18 O1          2.5773   -2.9681    5.4373 O.3       1 <0>        -0.6662
     19 N4          2.2499   -5.2538    1.4293 N.3       1 <0>        -0.8369
     20 H1         -0.9591    1.9053    0.0259 H         1 <0>         0.1307
     21 H2          1.1563    3.1654    0.0076 H         1 <0>         0.1312
     22 H3          3.3051    1.9634   -0.0196 H         1 <0>         0.1275
     23 H4          1.2231   -1.7588   -0.0176 H         1 <0>         0.1186
     24 H5         -0.9258   -0.5567    0.0082 H         1 <0>         0.1308
     25 H6          3.5884   -1.6586   -0.5549 H         1 <0>         0.1026
     26 H7          4.4573   -0.1052   -0.5563 H         1 <0>         0.1262
     27 H8          5.5046    0.6747    1.4315 H         1 <0>         0.1843
     28 H9          5.5551    0.7536    3.8442 H         1 <0>         0.1647
     29 H10         4.3475   -0.9441    5.2008 H         1 <0>         0.1677
     30 H11         4.1711   -5.0039    2.2102 H         1 <0>         0.0993
     31 H12         2.0593   -6.1152    1.9189 H         1 <0>         0.3734
     32 H13         1.4007   -4.7323    1.2711 H         1 <0>         0.3378
     33 H14         3.3964   -3.2282    0.4380 H         1 <0>         0.4053
@<TRIPOS>BOND
     1    1    6 ar
     2    1    2 ar
     3    1   20 1
     4    2    3 ar
     5    2   21 1
     6    3    4 ar
     7    3   22 1
     8    4    5 ar
     9    4    7 1
    10    5    6 ar
    11    5   23 1
    12    6   24 1
    13    7    8 1
    14    7   25 1
    15    7   26 1
    16    8   13 1
    17    8    9 1
    18    9   10 2
    19    9   27 1
    20   10   11 1
    21   10   28 1
    22   11   12 2
    23   11   29 1
    24   12   17 1
    25   12   13 1
    26   13   14 2
    27   14   15 1
    28   14   33 1
    29   15   16 1
    30   15   19 1
    31   15   30 1
    32   16   17 2
    33   17   18 1
    34   19   31 1
    35   19   32 1
@<TRIPOS>MOLECULE
CHEMBL134613__4
   33    35     0     0     0
SMALL
USER_CHARGES

@<TRIPOS>ATOM
      1 C1         -0.0167    1.3781    0.0096 C.ar      1 <0>        -0.1082
      2 C2          1.1709    2.0855    0.0021 C.ar      1 <0>        -0.1232
      3 C3          2.3773    1.4107   -0.0130 C.ar      1 <0>        -0.1013
      4 C4          2.3960    0.0285   -0.0201 C.ar      1 <0>        -0.1219
      5 C5          1.2084   -0.6789   -0.0117 C.ar      1 <0>        -0.0894
      6 C6          0.0021   -0.0041    0.0020 C.ar      1 <0>        -0.1216
      7 C7          3.7112   -0.7071   -0.0376 C.3       1 <0>         0.1492
      8 N1          4.1518   -0.9524    1.3379 N.pl3     1 <0>        -0.4846
      9 C8          4.9301   -0.0447    1.9974 C.2       1 <0>         0.1744
     10 C9          4.9947   -0.0260    3.3507 C.2       1 <0>        -0.2495
     11 C10         4.3521   -1.0012    4.1233 C.2       1 <0>         0.0632
     12 C11         3.7324   -2.0496    3.4728 C.2       1 <0>        -0.2751
     13 C12         3.7882   -2.1005    2.0020 C.2       1 <0>         0.4513
     14 N2          3.4832   -3.2137    1.3987 N.2       1 <0>        -0.6109
     15 C13         3.2355   -4.4497    2.1323 C.3       1 <0>         0.5104
     16 N3          2.7031   -4.2254    3.4696 N.am      1 <0>        -0.7381
     17 C14         2.9946   -3.1117    4.1647 C.2       1 <0>         0.5861
     18 O1          2.6468   -2.9876    5.3241 O.2       1 <0>        -0.5349
     19 N4          2.2778   -5.2652    1.3735 N.3       1 <0>        -0.8470
     20 H1         -0.9591    1.9053    0.0259 H         1 <0>         0.1239
     21 H2          1.1563    3.1654    0.0076 H         1 <0>         0.1248
     22 H3          3.3051    1.9634   -0.0196 H         1 <0>         0.1224
     23 H4          1.2231   -1.7588   -0.0176 H         1 <0>         0.1274
     24 H5         -0.9258   -0.5567    0.0082 H         1 <0>         0.1240
     25 H6          3.5884   -1.6586   -0.5549 H         1 <0>         0.1130
     26 H7          4.4573   -0.1052   -0.5563 H         1 <0>         0.1003
     27 H8          5.5052    0.6718    1.4296 H         1 <0>         0.1682
     28 H9          5.5527    0.7566    3.8433 H         1 <0>         0.1506
     29 H10         4.3418   -0.9350    5.2012 H         1 <0>         0.1449
     30 H11         4.1721   -5.0010    2.2160 H         1 <0>         0.0522
     31 H12         2.1296   -4.8981    3.8689 H         1 <0>         0.4036
     32 H13         2.6400   -5.4912    0.4593 H         1 <0>         0.3646
     33 H14         2.0323   -6.1014    1.8821 H         1 <0>         0.3510
@<TRIPOS>BOND
     1    1    6 ar
     2    1    2 ar
     3    1   20 1
     4    2    3 ar
     5    2   21 1
     6    3    4 ar
     7    3   22 1
     8    4    5 ar
     9    4    7 1
    10    5    6 ar
    11    5   23 1
    12    6   24 1
    13    7    8 1
    14    7   25 1
    15    7   26 1
    16    8   13 1
    17    8    9 1
    18    9   10 2
    19    9   27 1
    20   10   11 1
    21   10   28 1
    22   11   12 2
    23   11   29 1
    24   12   17 1
    25   12   13 1
    26   13   14 2
    27   14   15 1
    28   15   16 1
    29   15   19 1
    30   15   30 1
    31   16   17 am
    32   16   31 1
    33   17   18 2
    34   19   32 1
    35   19   33 1
@<TRIPOS>MOLECULE
CHEMBL134613__5
   34    36     0     0     0
SMALL
USER_CHARGES

@<TRIPOS>ATOM
      1 C1          6.5758   -2.3233   -2.7632 C.ar      1 <0>        -0.0878
      2 C2          5.4179   -3.0240   -2.4814 C.ar      1 <0>        -0.1132
      3 C3          4.4910   -2.5010   -1.5993 C.ar      1 <0>        -0.1012
      4 C4          4.7221   -1.2777   -0.9985 C.ar      1 <0>        -0.1524
      5 C5          5.8804   -0.5775   -1.2796 C.ar      1 <0>        -0.0890
      6 C6          6.8067   -1.0998   -2.1629 C.ar      1 <0>        -0.1120
      7 C7          3.7112   -0.7071   -0.0376 C.3       1 <0>         0.1233
      8 N1          4.0901   -1.0558    1.3339 N.pl3     1 <0>        -0.4593
      9 C8          4.8088   -0.1879    2.1052 C.2       1 <0>         0.1700
     10 C9          5.5223   -0.6212    3.1725 C.2       1 <0>        -0.1898
     11 C10         5.4662   -1.9561    3.5916 C.2       1 <0>         0.1063
     12 C11         4.5844   -2.8067    2.9550 C.2       1 <0>        -0.2431
     13 C12         3.7268   -2.2639    1.8816 C.cat     1 <0>         0.5140
     14 N2          2.6895   -2.9474    1.4906 N.pl3     1 <0>        -0.6277
     15 C13         2.2525   -4.1553    2.1813 C.3       1 <0>         0.5276
     16 N3          3.3435   -4.8724    2.8274 N.am      1 <0>        -0.7637
     17 C14         4.4583   -4.2326    3.2743 C.2       1 <0>         0.5797
     18 O1          5.3103   -4.8133    3.9206 O.2       1 <0>        -0.4762
     19 N4          1.2623   -3.7841    3.2009 N.3       1 <0>        -0.8409
     20 H1          7.3021   -2.7340   -3.4490 H         1 <0>         0.1356
     21 H2          5.2374   -3.9798   -2.9508 H         1 <0>         0.1340
     22 H3          3.5861   -3.0481   -1.3796 H         1 <0>         0.1184
     23 H4          6.0608    0.3785   -0.8106 H         1 <0>         0.1298
     24 H5          7.7114   -0.5525   -2.3828 H         1 <0>         0.1362
     25 H6          3.6825    0.3775   -0.1420 H         1 <0>         0.1398
     26 H7          2.7267   -1.1196   -0.2585 H         1 <0>         0.1107
     27 H8          4.8089    0.8638    1.8595 H         1 <0>         0.2040
     28 H9          6.1462    0.0768    3.7108 H         1 <0>         0.1844
     29 H10         6.0972   -2.3116    4.3927 H         1 <0>         0.1815
     30 H11         1.7763   -4.8188    1.4593 H         1 <0>         0.1600
     31 H12         3.2771   -5.8338    2.9382 H         1 <0>         0.4293
     32 H13         0.9360   -4.5973    3.7011 H         1 <0>         0.3823
     33 H14         1.6378   -3.0957    3.8359 H         1 <0>         0.3531
     34 H15         2.1921   -2.6436    0.7152 H         1 <0>         0.4361
@<TRIPOS>BOND
     1    1    6 ar
     2    1    2 ar
     3    1   20 1
     4    2    3 ar
     5    2   21 1
     6    3    4 ar
     7    3   22 1
     8    4    5 ar
     9    4    7 1
    10    5    6 ar
    11    5   23 1
    12    6   24 1
    13    7    8 1
    14    7   25 1
    15    7   26 1
    16    8   13 1
    17    8    9 1
    18    9   10 2
    19    9   27 1
    20   10   11 1
    21   10   28 1
    22   11   12 2
    23   11   29 1
    24   12   17 1
    25   12   13 1
    26   13   14 2
    27   14   15 1
    28   14   34 1
    29   15   16 1
    30   15   19 1
    31   15   30 1
    32   16   17 am
    33   16   31 1
    34   17   18 2
    35   19   32 1
    36   19   33 1
@<TRIPOS>MOLECULE
CHEMBL336487
   49    51     0     0     0
SMALL
USER_CHARGES

@<TRIPOS>ATOM
      1 C1         -1.3882   -0.6665   -2.5993 C.3       1 <0>        -0.0866
      2 C2         -0.5989   -0.7342   -1.3173 C.2       1 <0>         0.2701
      3 C3         -1.1979   -0.7516    0.0296 C.2       1 <0>        -0.6180
      4 C4         -0.1001   -1.3774    0.8993 C.3       1 <0>        -0.0739
      5 C5          1.1423   -0.8480    0.1405 C.3       1 <0>         0.3037
      6 N1          0.6930   -0.7903   -1.2558 N.2       1 <0>        -0.6574
      7 N2          2.2500   -1.7842    0.2982 N.pl3     1 <0>        -0.7340
      8 C6          2.0350   -3.1233    0.1618 C.2       1 <0>         0.6973
      9 N3          0.8340   -3.6248    0.3970 N.2       1 <0>        -0.7026
     10 C7         -0.1945   -2.8699    0.7390 C.2       1 <0>         0.5325
     11 O1         -1.2675   -3.4066    0.9337 O.2       1 <0>        -0.5169
     12 N4          3.0551   -3.9432   -0.2164 N.pl3     1 <0>        -0.8323
     13 S1         -2.7005   -0.2207    0.4941 S.3       1 <0>         0.0996
     14 C8         -2.4682    1.4982    0.8041 C.ar      1 <0>        -0.1206
     15 C9         -1.2429    2.1004    0.5123 C.ar      1 <0>        -0.1379
     16 C10        -1.0607    3.4430    0.7541 C.ar      1 <0>        -0.0559
     17 C11        -2.1025    4.2034    1.2918 C.ar      1 <0>        -0.1561
     18 C12        -3.3287    3.6000    1.5836 C.ar      1 <0>        -0.0746
     19 C13        -3.5113    2.2585    1.3359 C.ar      1 <0>        -0.1365
     20 C14        -1.9076    5.6446    1.5521 C.2       1 <0>         0.5541
     21 O2         -0.8406    6.1692    1.2985 O.2       1 <0>        -0.5672
     22 N5         -2.9126    6.3778    2.0707 N.am      1 <0>        -0.6842
     23 C15        -2.7193    7.8068    2.3288 C.3       1 <0>         0.0756
     24 C16        -3.6806    8.2610    3.4291 C.3       1 <0>        -0.0802
     25 C17        -3.3215    7.5605    4.7411 C.3       1 <0>        -0.1778
     26 C18        -4.2683    8.0078    5.8248 C.2       1 <0>         0.4929
     27 O3         -5.1487    8.8123    5.5713 O.co2     1 <0>        -0.7007
     28 O4         -4.1539    7.5652    6.9551 O.co2     1 <0>        -0.7215
     29 C19        -2.9937    8.5865    1.0687 C.2       1 <0>         0.4989
     30 O5         -3.7994    8.1669    0.2555 O.co2     1 <0>        -0.6976
     31 O6         -2.4101    9.6369    0.8625 O.co2     1 <0>        -0.7090
     32 H1         -0.7036   -0.5845   -3.4435 H         1 <0>         0.0485
     33 H2         -1.9884   -1.5702   -2.7046 H         1 <0>         0.0646
     34 H3         -2.0435    0.2043   -2.5770 H         1 <0>         0.0698
     35 H4         -0.1460   -1.0611    1.9414 H         1 <0>         0.0751
     36 H5          1.4139    0.1448    0.4991 H         1 <0>         0.0848
     37 H6          3.9354   -3.5743   -0.3889 H         1 <0>         0.4021
     38 H7          3.1393   -1.4538    0.5004 H         1 <0>         0.3889
     39 H8         -0.4377    1.5126    0.0971 H         1 <0>         0.1235
     40 H9         -0.1127    3.9087    0.5287 H         1 <0>         0.1159
     41 H10        -4.1342    4.1870    1.9995 H         1 <0>         0.1161
     42 H11        -4.4603    1.7930    1.5572 H         1 <0>         0.1149
     43 H12        -3.7639    5.9592    2.2730 H         1 <0>         0.3908
     44 H13        -1.6921    7.9826    2.6484 H         1 <0>         0.0738
     45 H14        -3.5998    9.3401    3.5595 H         1 <0>         0.0683
     46 H15        -4.7019    8.0044    3.1479 H         1 <0>         0.0589
     47 H16        -3.4022    6.4813    4.6107 H         1 <0>         0.0547
     48 H17        -2.3001    7.8171    5.0223 H         1 <0>         0.0515
     49 H18         2.9010   -4.8960   -0.3132 H         1 <0>         0.4147
@<TRIPOS>BOND
     1    1    2 1
     2    1   32 1
     3    1   33 1
     4    1   34 1
     5    2    6 2
     6    2    3 1
     7    3   13 1
     8    3    4 1
     9    4   10 1
    10    4    5 1
    11    4   35 1
    12    5    6 1
    13    5   36 1
    14    5    7 1
    15    7   38 1
    16    7    8 1
    17    8   12 1
    18    8    9 2
    19    9   10 1
    20   10   11 2
    21   12   37 1
    22   12   49 1
    23   13   14 1
    24   14   19 ar
    25   14   15 ar
    26   15   16 ar
    27   15   39 1
    28   16   17 ar
    29   16   40 1
    30   17   18 ar
    31   17   20 1
    32   18   19 ar
    33   18   41 1
    34   19   42 1
    35   20   21 2
    36   20   22 am
    37   22   23 1
    38   22   43 1
    39   23   24 1
    40   23   29 1
    41   23   44 1
    42   24   25 1
    43   24   45 1
    44   24   46 1
    45   25   26 1
    46   25   47 1
    47   25   48 1
    48   26   27 2
    49   26   28 1
    50   29   30 2
    51   29   31 1
@<TRIPOS>MOLECULE
CHEMBL336487__1
   49    51     0     0     0
SMALL
NO_CHARGES

@<TRIPOS>ATOM
      1 C1         -1.9819   -2.4000    0.3752 C.3       1 <0>        -0.1156
      2 C2         -0.5269   -2.1678    0.6915 C.2       1 <0>         0.1789
      3 C3          0.0547   -0.8464    1.1592 C.3       1 <0>        -0.2520
      4 C4          1.3804   -1.2859    1.8497 C.3       1 <0>        -0.1536
      5 C5          1.7013   -2.5261    0.9785 C.3       1 <0>         0.2991
      6 N1          0.3863   -3.0578    0.6081 N.2       1 <0>        -0.4493
      7 N2          2.4588   -3.4941    1.7649 N.pl3     1 <0>        -0.7153
      8 C6          2.0722   -3.7866    3.0390 C.2       1 <0>         0.5378
      9 N3          1.3903   -2.8972    3.7412 N.2       1 <0>        -0.4336
     10 C7          1.0374   -1.7240    3.2470 C.2       1 <0>         0.3775
     11 O1          0.4061   -0.9633    3.9544 O.2       1 <0>        -0.2824
     12 N4          2.3873   -4.9931    3.5877 N.2       1 <0>        -0.5621
     13 S1         -1.0534   -0.0395    2.3472 S.3       1 <0>         0.7302
     14 C8         -0.3471    1.5592    2.5711 C.ar      1 <0>        -0.2676
     15 C9          0.7381    1.9549    1.7926 C.ar      1 <0>        -0.0638
     16 C10         1.2894    3.1983    1.9642 C.ar      1 <0>        -0.0567
     17 C11         0.7613    4.0696    2.9220 C.ar      1 <0>        -0.0157
     18 C12        -0.3281    3.6696    3.7021 C.ar      1 <0>        -0.0865
     19 C13        -0.8787    2.4270    3.5223 C.ar      1 <0>        -0.0070
     20 C14         1.3525    5.4076    3.1094 C.2       1 <0>         0.5360
     21 O2          2.3002    5.7541    2.4307 O.2       1 <0>        -0.4893
     22 N5          0.8425    6.2464    4.0329 N.am      1 <0>        -0.6579
     23 C15         1.4298    7.5756    4.2190 C.3       1 <0>         0.1307
     24 C16         1.1424    8.0657    5.6396 C.3       1 <0>        -0.1069
     25 C17         1.8585    7.1623    6.6455 C.3       1 <0>        -0.1289
     26 C18         1.5754    7.6451    8.0447 C.2       1 <0>         0.4935
     27 O3          0.8666    8.6213    8.2210 O.co2     1 <0>        -0.5602
     28 O4          2.0552    7.0596    9.0004 O.co2     1 <0>        -0.5604
     29 C19         0.8271    8.5347    3.2251 C.2       1 <0>         0.4997
     30 O5         -0.3151    8.3681    2.8326 O.co2     1 <0>        -0.5352
     31 O6          1.4818    9.4773    2.8134 O.co2     1 <0>        -0.5202
     32 H1         -2.1827   -2.0995   -0.6532 H         1 <0>         0.1135
     33 H2          0.2583   -0.1916    0.3119 H         1 <0>         0.1998
     34 H3         -2.2159   -3.4576    0.4969 H         1 <0>         0.1112
     35 H4          2.1536   -0.5180    1.8250 H         1 <0>         0.1739
     36 H5          2.2677   -2.2316    0.0949 H         1 <0>         0.1608
     37 H6         -2.5996   -1.8109    1.0530 H         1 <0>         0.0846
     38 H7          2.1118   -5.2003    4.4944 H         1 <0>         0.3715
     39 H8          1.1458    1.2814    1.0532 H         1 <0>         0.1482
     40 H9          2.1310    3.5044    1.3606 H         1 <0>         0.1697
     41 H10        -0.7380    4.3405    4.4426 H         1 <0>         0.1642
     42 H11        -1.7229    2.1192    4.1214 H         1 <0>         0.1655
     43 H12         0.0866    5.9700    4.5743 H         1 <0>         0.4115
     44 H13         2.5074    7.5216    4.0644 H         1 <0>         0.1385
     45 H14         1.5012    9.0890    5.7504 H         1 <0>         0.1127
     46 H15         0.0685    8.0353    5.8241 H         1 <0>         0.0959
     47 H16         1.4997    6.1391    6.5346 H         1 <0>         0.0857
     48 H17         2.9324    7.1928    6.4609 H         1 <0>         0.0976
     49 H18         3.2364   -3.9291    1.3814 H         1 <0>         0.4318
@<TRIPOS>BOND
     1    1    2 1
     2    1   32 1
     3    1   34 1
     4    1   37 1
     5    2    3 1
     6    2    6 2
     7    3    4 1
     8    3   13 1
     9    3   33 1
    10    4   10 1
    11    4    5 1
    12    4   35 1
    13    5    7 1
    14    5   36 1
    15    5    6 1
    16    7    8 1
    17    7   49 1
    18    8    9 2
    19    8   12 1
    20    9   10 1
    21   10   11 2
    22   12   38 1
    23   13   14 1
    24   14   19 ar
    25   14   15 ar
    26   15   16 ar
    27   15   39 1
    28   16   17 ar
    29   16   40 1
    30   17   18 ar
    31   17   20 1
    32   18   19 ar
    33   18   41 1
    34   19   42 1
    35   20   21 2
    36   20   22 am
    37   22   23 1
    38   22   43 1
    39   23   24 1
    40   23   29 1
    41   23   44 1
    42   24   25 1
    43   24   45 1
    44   24   46 1
    45   25   26 1
    46   25   47 1
    47   25   48 1
    48   26   27 2
    49   26   28 1
    50   29   30 2
    51   29   31 1
@<TRIPOS>MOLECULE
CHEMBL336487__2
   50    52     0     0     0
SMALL
NO_CHARGES

@<TRIPOS>ATOM
      1 C1         -1.9819   -2.4000    0.3752 C.3       1 <0>        -0.1072
      2 C2         -0.5269   -2.1678    0.6915 C.2       1 <0>         0.2036
      3 C3          0.0547   -0.8464    1.1592 C.3       1 <0>        -0.1325
      4 C4          1.3804   -1.2859    1.8497 C.3       1 <0>        -0.1934
      5 C5          1.7013   -2.5261    0.9785 C.3       1 <0>         0.2950
      6 N1          0.3863   -3.0578    0.6081 N.2       1 <0>        -0.4942
      7 N2          2.4588   -3.4941    1.7649 N.pl3     1 <0>        -0.7349
      8 C6          2.0722   -3.7866    3.0390 C.2       1 <0>         0.7026
      9 N3          1.3903   -2.8972    3.7412 N.2       1 <0>        -0.6674
     10 C7          1.0374   -1.7240    3.2470 C.2       1 <0>         0.5021
     11 O1          0.4061   -0.9633    3.9544 O.2       1 <0>        -0.4530
     12 N4          2.3873   -4.9931    3.5877 N.pl3     1 <0>        -0.8071
     13 S1         -1.0534   -0.0395    2.3472 S.3       1 <0>         0.0774
     14 C8         -0.3471    1.5592    2.5711 C.ar      1 <0>        -0.0412
     15 C9          0.7381    1.9549    1.7926 C.ar      1 <0>        -0.1521
     16 C10         1.2894    3.1983    1.9642 C.ar      1 <0>        -0.0133
     17 C11         0.7613    4.0696    2.9220 C.ar      1 <0>        -0.1640
     18 C12        -0.3281    3.6696    3.7021 C.ar      1 <0>        -0.0508
     19 C13        -0.8787    2.4270    3.5223 C.ar      1 <0>        -0.1029
     20 C14         1.3525    5.4076    3.1094 C.2       1 <0>         0.5521
     21 O2          2.3002    5.7541    2.4307 O.2       1 <0>        -0.4684
     22 N5          0.8425    6.2464    4.0329 N.am      1 <0>        -0.5802
     23 C15         1.4298    7.5756    4.2190 C.3       1 <0>         0.1759
     24 C16         1.1424    8.0657    5.6396 C.3       1 <0>        -0.1151
     25 C17         1.8585    7.1623    6.6455 C.3       1 <0>        -0.1107
     26 C18         1.5754    7.6451    8.0447 C.2       1 <0>         0.5078
     27 O3          0.8666    8.6213    8.2210 O.co2     1 <0>        -0.5174
     28 O4          2.0552    7.0596    9.0004 O.co2     1 <0>        -0.4978
     29 C19         0.8271    8.5347    3.2251 C.2       1 <0>         0.5269
     30 O5         -0.1379    8.1976    2.5606 O.co2     1 <0>        -0.3914
     31 O6          1.3046    9.6478    3.0854 O.co2     1 <0>        -0.3787
     32 H1         -2.1827   -2.0995   -0.6532 H         1 <0>         0.0984
     33 H2          0.2583   -0.1916    0.3119 H         1 <0>         0.1364
     34 H3         -2.2159   -3.4576    0.4969 H         1 <0>         0.0923
     35 H4          2.1536   -0.5180    1.8250 H         1 <0>         0.1361
     36 H5          2.2677   -2.2316    0.0949 H         1 <0>         0.1341
     37 H6         -2.5996   -1.8109    1.0530 H         1 <0>         0.0904
     38 H7          2.8872   -5.6449    3.0718 H         1 <0>         0.4145
     39 H8          2.1118   -5.2003    4.4944 H         1 <0>         0.4294
     40 H9          1.1458    1.2814    1.0532 H         1 <0>         0.1314
     41 H10         2.1310    3.5044    1.3606 H         1 <0>         0.1453
     42 H11        -0.7380    4.3405    4.4426 H         1 <0>         0.1347
     43 H12        -1.7229    2.1192    4.1214 H         1 <0>         0.1442
     44 H13         0.0866    5.9700    4.5743 H         1 <0>         0.4319
     45 H14         2.5074    7.5216    4.0644 H         1 <0>         0.2027
     46 H15         1.5012    9.0890    5.7504 H         1 <0>         0.1424
     47 H16         0.0685    8.0353    5.8241 H         1 <0>         0.1218
     48 H17         1.4997    6.1391    6.5346 H         1 <0>         0.1100
     49 H18         2.9324    7.1928    6.4609 H         1 <0>         0.1218
     50 H19         3.2364   -3.9291    1.3814 H         1 <0>         0.4124
@<TRIPOS>BOND
     1    1    2 1
     2    1   32 1
     3    1   34 1
     4    1   37 1
     5    2    3 1
     6    2    6 2
     7    3    4 1
     8    3   13 1
     9    3   33 1
    10    4   10 1
    11    4    5 1
    12    4   35 1
    13    5    7 1
    14    5   36 1
    15    5    6 1
    16    7    8 1
    17    7   50 1
    18    8    9 2
    19    8   12 1
    20    9   10 1
    21   10   11 2
    22   12   38 1
    23   12   39 1
    24   13   14 1
    25   14   19 ar
    26   14   15 ar
    27   15   16 ar
    28   15   40 1
    29   16   17 ar
    30   16   41 1
    31   17   18 ar
    32   17   20 1
    33   18   19 ar
    34   18   42 1
    35   19   43 1
    36   20   21 2
    37   20   22 am
    38   22   23 1
    39   22   44 1
    40   23   24 1
    41   23   29 1
    42   23   45 1
    43   24   25 1
    44   24   46 1
    45   24   47 1
    46   25   26 1
    47   25   48 1
    48   25   49 1
    49   26   27 2
    50   26   28 1
    51   29   30 2
    52   29   31 1
@<TRIPOS>MOLECULE
CHEMBL336487__3
   49    51     0     0     0
SMALL
USER_CHARGES

@<TRIPOS>ATOM
      1 C1         -1.3882   -0.6665   -2.5993 C.3       1 <0>        -0.0863
      2 C2         -0.5989   -0.7342   -1.3173 C.2       1 <0>         0.2699
      3 C3         -1.1979   -0.7516    0.0296 C.2       1 <0>        -0.6176
      4 C4         -0.1001   -1.3774    0.8993 C.3       1 <0>        -0.0742
      5 C5          1.1423   -0.8480    0.1405 C.3       1 <0>         0.3037
      6 N1          0.6930   -0.7903   -1.2558 N.2       1 <0>        -0.6577
      7 N2          2.2500   -1.7842    0.2982 N.pl3     1 <0>        -0.7339
      8 C6          2.0350   -3.1233    0.1618 C.2       1 <0>         0.6972
      9 N3          0.8340   -3.6248    0.3970 N.2       1 <0>        -0.7027
     10 C7         -0.1945   -2.8699    0.7390 C.2       1 <0>         0.5327
     11 O1         -1.2675   -3.4066    0.9337 O.2       1 <0>        -0.5172
     12 N4          3.0551   -3.9432   -0.2164 N.pl3     1 <0>        -0.8323
     13 S1         -2.7005   -0.2207    0.4941 S.3       1 <0>         0.0984
     14 C8         -2.4682    1.4982    0.8041 C.ar      1 <0>        -0.1213
     15 C9         -1.2429    2.1004    0.5123 C.ar      1 <0>        -0.1376
     16 C10        -1.0607    3.4430    0.7541 C.ar      1 <0>        -0.0562
     17 C11        -2.1025    4.2034    1.2918 C.ar      1 <0>        -0.1534
     18 C12        -3.3287    3.6000    1.5836 C.ar      1 <0>        -0.0756
     19 C13        -3.5113    2.2585    1.3359 C.ar      1 <0>        -0.1366
     20 C14        -1.9076    5.6446    1.5521 C.2       1 <0>         0.5610
     21 O2         -0.8406    6.1692    1.2985 O.2       1 <0>        -0.5687
     22 N5         -2.9126    6.3778    2.0707 N.am      1 <0>        -0.6846
     23 C15        -2.7193    7.8068    2.3288 C.3       1 <0>         0.0746
     24 C16        -4.0740    8.5174    2.3039 C.3       1 <0>        -0.0782
     25 C17        -4.6664    8.4370    0.8955 C.3       1 <0>        -0.1783
     26 C18        -6.0007    9.1369    0.8710 C.2       1 <0>         0.4925
     27 O3         -6.4375    9.6523    1.8860 O.co2     1 <0>        -0.7003
     28 O4         -6.6435    9.1878   -0.1637 O.co2     1 <0>        -0.7221
     29 C19        -2.0801    7.9911    3.6811 C.2       1 <0>         0.4954
     30 O5         -1.8111    7.0188    4.3657 O.co2     1 <0>        -0.6939
     31 O6         -1.8321    9.1124    4.0904 O.co2     1 <0>        -0.7090
     32 H1         -0.7036   -0.5845   -3.4435 H         1 <0>         0.0483
     33 H2         -1.9884   -1.5702   -2.7046 H         1 <0>         0.0645
     34 H3         -2.0435    0.2043   -2.5770 H         1 <0>         0.0696
     35 H4         -0.1460   -1.0611    1.9414 H         1 <0>         0.0752
     36 H5          1.4139    0.1448    0.4991 H         1 <0>         0.0850
     37 H6          3.9354   -3.5743   -0.3889 H         1 <0>         0.4021
     38 H7          3.1393   -1.4538    0.5004 H         1 <0>         0.3889
     39 H8         -0.4377    1.5126    0.0971 H         1 <0>         0.1232
     40 H9         -0.1127    3.9087    0.5287 H         1 <0>         0.1157
     41 H10        -4.1342    4.1870    1.9995 H         1 <0>         0.1151
     42 H11        -4.4603    1.7930    1.5572 H         1 <0>         0.1144
     43 H12        -3.7639    5.9592    2.2730 H         1 <0>         0.3885
     44 H13        -2.0726    8.2306    1.5605 H         1 <0>         0.0740
     45 H14        -4.7500    8.0357    3.0104 H         1 <0>         0.0536
     46 H15        -3.9413    9.5627    2.5831 H         1 <0>         0.0749
     47 H16        -3.9904    8.9187    0.1890 H         1 <0>         0.0511
     48 H17        -4.7991    7.3917    0.6164 H         1 <0>         0.0536
     49 H18         2.9010   -4.8960   -0.3132 H         1 <0>         0.4146
@<TRIPOS>BOND
     1    1    2 1
     2    1   32 1
     3    1   33 1
     4    1   34 1
     5    2    6 2
     6    2    3 1
     7    3   13 1
     8    3    4 1
     9    4   10 1
    10    4    5 1
    11    4   35 1
    12    5    6 1
    13    5   36 1
    14    5    7 1
    15    7   38 1
    16    7    8 1
    17    8   12 1
    18    8    9 2
    19    9   10 1
    20   10   11 2
    21   12   37 1
    22   12   49 1
    23   13   14 1
    24   14   19 ar
    25   14   15 ar
    26   15   16 ar
    27   15   39 1
    28   16   17 ar
    29   16   40 1
    30   17   18 ar
    31   17   20 1
    32   18   19 ar
    33   18   41 1
    34   19   42 1
    35   20   21 2
    36   20   22 am
    37   22   23 1
    38   22   43 1
    39   23   24 1
    40   23   29 1
    41   23   44 1
    42   24   25 1
    43   24   45 1
    44   24   46 1
    45   25   26 1
    46   25   47 1
    47   25   48 1
    48   26   27 2
    49   26   28 1
    50   29   30 2
    51   29   31 1
@<TRIPOS>MOLECULE
CHEMBL336487__4
   49    51     0     0     0
SMALL
NO_CHARGES

@<TRIPOS>ATOM
      1 C1         -1.9819   -2.4000    0.3752 C.3       1 <0>        -0.1155
      2 C2         -0.5269   -2.1678    0.6915 C.2       1 <0>         0.1787
      3 C3          0.0547   -0.8464    1.1592 C.3       1 <0>        -0.2516
      4 C4          1.3804   -1.2859    1.8497 C.3       1 <0>        -0.1538
      5 C5          1.7013   -2.5261    0.9785 C.3       1 <0>         0.2992
      6 N1          0.3863   -3.0578    0.6081 N.2       1 <0>        -0.4492
      7 N2          2.4588   -3.4941    1.7649 N.pl3     1 <0>        -0.7153
      8 C6          2.0722   -3.7866    3.0390 C.2       1 <0>         0.5381
      9 N3          1.3903   -2.8972    3.7412 N.2       1 <0>        -0.4341
     10 C7          1.0374   -1.7240    3.2470 C.2       1 <0>         0.3778
     11 O1          0.4061   -0.9633    3.9544 O.2       1 <0>        -0.2820
     12 N4          2.3873   -4.9931    3.5877 N.2       1 <0>        -0.5629
     13 S1         -1.0534   -0.0395    2.3472 S.3       1 <0>         0.7294
     14 C8         -0.3471    1.5592    2.5711 C.ar      1 <0>        -0.2679
     15 C9          0.7381    1.9549    1.7926 C.ar      1 <0>        -0.0637
     16 C10         1.2894    3.1983    1.9642 C.ar      1 <0>        -0.0568
     17 C11         0.7613    4.0696    2.9220 C.ar      1 <0>        -0.0131
     18 C12        -0.3281    3.6696    3.7021 C.ar      1 <0>        -0.0873
     19 C13        -0.8787    2.4270    3.5223 C.ar      1 <0>        -0.0071
     20 C14         1.3525    5.4076    3.1094 C.2       1 <0>         0.5411
     21 O2          2.3002    5.7541    2.4307 O.2       1 <0>        -0.4902
     22 N5          0.8425    6.2464    4.0329 N.am      1 <0>        -0.6595
     23 C15         1.4298    7.5756    4.2190 C.3       1 <0>         0.1306
     24 C16         0.3785    8.5201    4.8050 C.3       1 <0>        -0.1063
     25 C17        -0.7524    8.7154    3.7930 C.3       1 <0>        -0.1297
     26 C18        -1.7879    9.6457    4.3702 C.2       1 <0>         0.4934
     27 O3         -1.6356   10.1097    5.4874 O.co2     1 <0>        -0.5588
     28 O4         -2.7780    9.9345    3.7200 O.co2     1 <0>        -0.5610
     29 C19         2.6007    7.4797    5.1628 C.2       1 <0>         0.4990
     30 O5          2.9155    6.4011    5.6361 O.co2     1 <0>        -0.5381
     31 O6          3.2333    8.4808    5.4531 O.co2     1 <0>        -0.5184
     32 H1         -2.1827   -2.0995   -0.6532 H         1 <0>         0.1134
     33 H2          0.2583   -0.1916    0.3119 H         1 <0>         0.1997
     34 H3         -2.2159   -3.4576    0.4969 H         1 <0>         0.1111
     35 H4          2.1536   -0.5180    1.8250 H         1 <0>         0.1740
     36 H5          2.2677   -2.2316    0.0949 H         1 <0>         0.1608
     37 H6         -2.5996   -1.8109    1.0530 H         1 <0>         0.0846
     38 H7          2.1118   -5.2003    4.4944 H         1 <0>         0.3713
     39 H8          1.1458    1.2814    1.0532 H         1 <0>         0.1480
     40 H9          2.1310    3.5044    1.3606 H         1 <0>         0.1695
     41 H10        -0.7380    4.3405    4.4426 H         1 <0>         0.1635
     42 H11        -1.7229    2.1192    4.1214 H         1 <0>         0.1651
     43 H12         0.0866    5.9700    4.5743 H         1 <0>         0.4098
     44 H13         1.7688    7.9609    3.2574 H         1 <0>         0.1402
     45 H14        -0.0248    8.0908    5.7221 H         1 <0>         0.0922
     46 H15         0.8383    9.4833    5.0262 H         1 <0>         0.1174
     47 H16        -0.3491    9.1447    2.8759 H         1 <0>         0.0972
     48 H17        -1.2123    7.7522    3.5718 H         1 <0>         0.0858
     49 H18         3.2364   -3.9291    1.3814 H         1 <0>         0.4318
@<TRIPOS>BOND
     1    1    2 1
     2    1   32 1
     3    1   34 1
     4    1   37 1
     5    2    3 1
     6    2    6 2
     7    3    4 1
     8    3   13 1
     9    3   33 1
    10    4   10 1
    11    4    5 1
    12    4   35 1
    13    5    7 1
    14    5   36 1
    15    5    6 1
    16    7    8 1
    17    7   49 1
    18    8    9 2
    19    8   12 1
    20    9   10 1
    21   10   11 2
    22   12   38 1
    23   13   14 1
    24   14   19 ar
    25   14   15 ar
    26   15   16 ar
    27   15   39 1
    28   16   17 ar
    29   16   40 1
    30   17   18 ar
    31   17   20 1
    32   18   19 ar
    33   18   41 1
    34   19   42 1
    35   20   21 2
    36   20   22 am
    37   22   23 1
    38   22   43 1
    39   23   24 1
    40   23   29 1
    41   23   44 1
    42   24   25 1
    43   24   45 1
    44   24   46 1
    45   25   26 1
    46   25   47 1
    47   25   48 1
    48   26   27 2
    49   26   28 1
    50   29   30 2
    51   29   31 1
@<TRIPOS>MOLECULE
CHEMBL336487__5
   50    52     0     0     0
SMALL
NO_CHARGES

@<TRIPOS>ATOM
      1 C1         -1.9819   -2.4000    0.3752 C.3       1 <0>        -0.1071
      2 C2         -0.5269   -2.1678    0.6915 C.2       1 <0>         0.2036
      3 C3          0.0547   -0.8464    1.1592 C.3       1 <0>        -0.1324
      4 C4          1.3804   -1.2859    1.8497 C.3       1 <0>        -0.1937
      5 C5          1.7013   -2.5261    0.9785 C.3       1 <0>         0.2950
      6 N1          0.3863   -3.0578    0.6081 N.2       1 <0>        -0.4941
      7 N2          2.4588   -3.4941    1.7649 N.pl3     1 <0>        -0.7349
      8 C6          2.0722   -3.7866    3.0390 C.2       1 <0>         0.7026
      9 N3          1.3903   -2.8972    3.7412 N.2       1 <0>        -0.6676
     10 C7          1.0374   -1.7240    3.2470 C.2       1 <0>         0.5021
     11 O1          0.4061   -0.9633    3.9544 O.2       1 <0>        -0.4531
     12 N4          2.3873   -4.9931    3.5877 N.pl3     1 <0>        -0.8071
     13 S1         -1.0534   -0.0395    2.3472 S.3       1 <0>         0.0773
     14 C8         -0.3471    1.5592    2.5711 C.ar      1 <0>        -0.0406
     15 C9          0.7381    1.9549    1.7926 C.ar      1 <0>        -0.1523
     16 C10         1.2894    3.1983    1.9642 C.ar      1 <0>        -0.0129
     17 C11         0.7613    4.0696    2.9220 C.ar      1 <0>        -0.1659
     18 C12        -0.3281    3.6696    3.7021 C.ar      1 <0>        -0.0504
     19 C13        -0.8787    2.4270    3.5223 C.ar      1 <0>        -0.1030
     20 C14         1.3525    5.4076    3.1094 C.2       1 <0>         0.5493
     21 O2          2.3002    5.7541    2.4307 O.2       1 <0>        -0.4666
     22 N5          0.8425    6.2464    4.0329 N.am      1 <0>        -0.5774
     23 C15         1.4298    7.5756    4.2190 C.3       1 <0>         0.1767
     24 C16         0.3785    8.5201    4.8050 C.3       1 <0>        -0.1155
     25 C17        -0.7524    8.7154    3.7930 C.3       1 <0>        -0.1108
     26 C18        -1.7879    9.6457    4.3702 C.2       1 <0>         0.5075
     27 O3         -1.6356   10.1097    5.4874 O.co2     1 <0>        -0.5209
     28 O4         -2.7780    9.9345    3.7200 O.co2     1 <0>        -0.5017
     29 C19         2.6007    7.4797    5.1628 C.2       1 <0>         0.5258
     30 O5          3.5347    8.2562    5.0563 O.co2     1 <0>        -0.3764
     31 O6          2.6141    6.6257    6.0328 O.co2     1 <0>        -0.3850
     32 H1         -2.1827   -2.0995   -0.6532 H         1 <0>         0.0985
     33 H2          0.2583   -0.1916    0.3119 H         1 <0>         0.1365
     34 H3         -2.2159   -3.4576    0.4969 H         1 <0>         0.0923
     35 H4          2.1536   -0.5180    1.8250 H         1 <0>         0.1360
     36 H5          2.2677   -2.2316    0.0949 H         1 <0>         0.1341
     37 H6         -2.5996   -1.8109    1.0530 H         1 <0>         0.0904
     38 H7          2.8872   -5.6449    3.0718 H         1 <0>         0.4145
     39 H8          2.1118   -5.2003    4.4944 H         1 <0>         0.4293
     40 H9          1.1458    1.2814    1.0532 H         1 <0>         0.1316
     41 H10         2.1310    3.5044    1.3606 H         1 <0>         0.1454
     42 H11        -0.7380    4.3405    4.4426 H         1 <0>         0.1351
     43 H12        -1.7229    2.1192    4.1214 H         1 <0>         0.1445
     44 H13         0.0866    5.9700    4.5743 H         1 <0>         0.4330
     45 H14         1.7688    7.9609    3.2574 H         1 <0>         0.2015
     46 H15        -0.0248    8.0908    5.7221 H         1 <0>         0.1234
     47 H16         0.8383    9.4833    5.0262 H         1 <0>         0.1402
     48 H17        -0.3491    9.1447    2.8759 H         1 <0>         0.1217
     49 H18        -1.2123    7.7522    3.5718 H         1 <0>         0.1089
     50 H19         3.2364   -3.9291    1.3814 H         1 <0>         0.4125
@<TRIPOS>BOND
     1    1    2 1
     2    1   32 1
     3    1   34 1
     4    1   37 1
     5    2    3 1
     6    2    6 2
     7    3    4 1
     8    3   13 1
     9    3   33 1
    10    4   10 1
    11    4    5 1
    12    4   35 1
    13    5    7 1
    14    5   36 1
    15    5    6 1
    16    7    8 1
    17    7   50 1
    18    8    9 2
    19    8   12 1
    20    9   10 1
    21   10   11 2
    22   12   38 1
    23   12   39 1
    24   13   14 1
    25   14   19 ar
    26   14   15 ar
    27   15   16 ar
    28   15   40 1
    29   16   17 ar
    30   16   41 1
    31   17   18 ar
    32   17   20 1
    33   18   19 ar
    34   18   42 1
    35   19   43 1
    36   20   21 2
    37   20   22 am
    38   22   23 1
    39   22   44 1
    40   23   24 1
    41   23   29 1
    42   23   45 1
    43   24   25 1
    44   24   46 1
    45   24   47 1
    46   25   26 1
    47   25   48 1
    48   25   49 1
    49   26   27 2
    50   26   28 1
    51   29   30 2
    52   29   31 1
@<TRIPOS>MOLECULE
CHEMBL336487__6
   49    51     0     0     0
SMALL
USER_CHARGES

@<TRIPOS>ATOM
      1 C1         -0.0139   -1.8307   -2.1701 C.3       1 <0>        -0.0879
      2 C2         -0.1394   -1.6587   -0.6783 C.2       1 <0>         0.2636
      3 C3         -1.1479   -0.7922   -0.0054 C.2       1 <0>        -0.6068
      4 C4         -0.4409   -0.4635    1.2850 C.3       1 <0>        -0.0836
      5 C5          0.1801   -1.8773    1.5256 C.3       1 <0>         0.3126
      6 N1          0.6217   -2.2563    0.2110 N.2       1 <0>        -0.6481
      7 N2          1.0534   -1.7339    2.6656 N.pl3     1 <0>        -0.7374
      8 C6          0.4076   -1.2394    3.7881 C.2       1 <0>         0.6901
      9 N3         -0.7275   -0.5642    3.6770 N.2       1 <0>        -0.7055
     10 C7         -1.2558   -0.1833    2.5021 C.2       1 <0>         0.5302
     11 O1         -2.3403    0.3613    2.4347 O.2       1 <0>        -0.4757
     12 N4          0.9464   -1.4505    5.0214 N.pl3     1 <0>        -0.8296
     13 S1         -2.6476   -0.3165   -0.5347 S.3       1 <0>         0.1019
     14 C8         -2.3604    1.2592   -1.2691 C.ar      1 <0>        -0.1091
     15 C9         -1.0593    1.7549   -1.3707 C.ar      1 <0>        -0.1379
     16 C10        -0.8342    2.9855   -1.9442 C.ar      1 <0>        -0.0550
     17 C11        -1.9084    3.7389   -2.4250 C.ar      1 <0>        -0.1581
     18 C12        -3.2105    3.2421   -2.3231 C.ar      1 <0>        -0.0727
     19 C13        -3.4336    2.0088   -1.7544 C.ar      1 <0>        -0.1386
     20 C14        -1.6677    5.0603   -3.0405 C.2       1 <0>         0.5550
     21 O2         -0.5348    5.4924   -3.1287 O.2       1 <0>        -0.5678
     22 N5         -2.7040    5.7867   -3.5041 N.am      1 <0>        -0.6846
     23 C15        -2.4652    7.0970   -4.1144 C.3       1 <0>         0.0759
     24 C16        -3.7244    7.9565   -3.9858 C.3       1 <0>        -0.0800
     25 C17        -3.9982    8.2422   -2.5078 C.3       1 <0>        -0.1782
     26 C18        -5.2384    9.0888   -2.3812 C.2       1 <0>         0.4930
     27 O3         -5.8470    9.4319   -3.3804 O.co2     1 <0>        -0.7012
     28 O4         -5.6333    9.4306   -1.2795 O.co2     1 <0>        -0.7211
     29 C19        -2.1258    6.9180   -5.5717 C.2       1 <0>         0.4991
     30 O5         -2.5858    5.9755   -6.1935 O.co2     1 <0>        -0.6978
     31 O6         -1.3912    7.7158   -6.1290 O.co2     1 <0>        -0.7094
     32 H1          0.8458   -2.4629   -2.3920 H         1 <0>         0.0518
     33 H2         -0.9185   -2.2979   -2.5594 H         1 <0>         0.0699
     34 H3          0.1217   -0.8556   -2.6381 H         1 <0>         0.0714
     35 H4          0.3182    0.3042    1.1348 H         1 <0>         0.0513
     36 H5         -0.6291   -2.5481    1.8141 H         1 <0>         0.0419
     37 H6          1.7767   -1.9440    5.1100 H         1 <0>         0.4025
     38 H7          1.9963   -1.9609    2.6483 H         1 <0>         0.3929
     39 H8         -0.2292    1.1727   -0.9987 H         1 <0>         0.1203
     40 H9          0.1723    3.3691   -2.0224 H         1 <0>         0.1161
     41 H10        -4.0412    3.8240   -2.6942 H         1 <0>         0.1159
     42 H11        -4.4394    1.6227   -1.6796 H         1 <0>         0.1143
     43 H12        -3.6079    5.4419   -3.4338 H         1 <0>         0.3908
     44 H13        -1.6360    7.5889   -3.6059 H         1 <0>         0.0736
     45 H14        -3.5779    8.8972   -4.5166 H         1 <0>         0.0681
     46 H15        -4.5729    7.4247   -4.4163 H         1 <0>         0.0588
     47 H16        -4.1446    7.3015   -1.9770 H         1 <0>         0.0550
     48 H17        -3.1497    8.7740   -2.0773 H         1 <0>         0.0515
     49 H18         0.4997   -1.1072    5.8111 H         1 <0>         0.4183
@<TRIPOS>BOND
     1    1    2 1
     2    1   32 1
     3    1   33 1
     4    1   34 1
     5    2    6 2
     6    2    3 1
     7    3   13 1
     8    3    4 1
     9    4   10 1
    10    4    5 1
    11    4   35 1
    12    5    6 1
    13    5   36 1
    14    5    7 1
    15    7   38 1
    16    7    8 1
    17    8   12 1
    18    8    9 2
    19    9   10 1
    20   10   11 2
    21   12   37 1
    22   12   49 1
    23   13   14 1
    24   14   19 ar
    25   14   15 ar
    26   15   16 ar
    27   15   39 1
    28   16   17 ar
    29   16   40 1
    30   17   18 ar
    31   17   20 1
    32   18   19 ar
    33   18   41 1
    34   19   42 1
    35   20   21 2
    36   20   22 am
    37   22   23 1
    38   22   43 1
    39   23   24 1
    40   23   29 1
    41   23   44 1
    42   24   25 1
    43   24   45 1
    44   24   46 1
    45   25   26 1
    46   25   47 1
    47   25   48 1
    48   26   27 2
    49   26   28 1
    50   29   30 2
    51   29   31 1
@<TRIPOS>MOLECULE
CHEMBL336487__7
   49    51     0     0     0
SMALL
NO_CHARGES

@<TRIPOS>ATOM
      1 C1         -1.6740   -1.7650    3.1622 C.3       1 <0>        -0.1068
      2 C2         -1.3733   -1.2497    1.7783 C.2       1 <0>         0.1851
      3 C3          0.0055   -0.7912    1.2923 C.3       1 <0>        -0.0964
      4 C4         -0.3958    0.1837    0.1775 C.3       1 <0>        -0.2226
      5 C5         -1.5999   -0.6507   -0.3638 C.3       1 <0>         0.2850
      6 N1         -2.2436   -1.1346    0.8218 N.2       1 <0>        -0.4707
      7 N2         -2.2281    0.1556   -1.3787 N.pl3     1 <0>        -0.6965
      8 C6         -1.3570    0.5432   -2.3854 C.2       1 <0>         0.5679
      9 N3         -0.0473    0.5492   -2.1828 N.2       1 <0>        -0.5310
     10 C7          0.5256    0.3339   -0.9879 C.2       1 <0>         0.5056
     11 O1          1.7325    0.2643   -0.8613 O.2       1 <0>        -0.4029
     12 N4         -1.8529    0.9217   -3.5965 N.2       1 <0>        -0.4476
     13 S1          0.9155    0.0597    2.6108 S.3       1 <0>        -0.0004
     14 C8         -0.1693    1.3553    3.1098 C.ar      1 <0>        -0.0529
     15 C9         -1.4473    1.4417    2.5621 C.ar      1 <0>        -0.1678
     16 C10        -2.2936    2.4484    2.9488 C.ar      1 <0>        -0.0131
     17 C11        -1.8730    3.3892    3.8940 C.ar      1 <0>        -0.1617
     18 C12        -0.5896    3.3000    4.4420 C.ar      1 <0>        -0.0516
     19 C13         0.2505    2.2880    4.0555 C.ar      1 <0>        -0.1004
     20 C14        -2.7810    4.4736    4.3116 C.2       1 <0>         0.5522
     21 O2         -3.8967    4.5503    3.8340 O.2       1 <0>        -0.4570
     22 N5         -2.3743    5.3797    5.2227 N.am      1 <0>        -0.5890
     23 C15        -3.2763    6.4570    5.6376 C.3       1 <0>         0.1803
     24 C16        -2.4541    7.6450    6.1412 C.3       1 <0>        -0.1173
     25 C17        -1.6354    8.2249    4.9860 C.3       1 <0>        -0.1049
     26 C18        -0.8256    9.3950    5.4821 C.2       1 <0>         0.5082
     27 O3         -0.8967    9.7338    6.6511 O.co2     1 <0>        -0.5035
     28 O4         -0.0994   10.0030    4.7143 O.co2     1 <0>        -0.4829
     29 C19        -4.1740    5.9629    6.7426 C.2       1 <0>         0.5245
     30 O5         -3.7786    5.1022    7.5103 O.co2     1 <0>        -0.3791
     31 O6         -5.2956    6.4239    6.8689 O.co2     1 <0>        -0.3680
     32 H1         -1.8684   -0.9246    3.8285 H         1 <0>         0.0969
     33 H2          0.5812   -1.6275    0.8956 H         1 <0>         0.1608
     34 H3         -2.5511   -2.4111    3.1268 H         1 <0>         0.0965
     35 H4         -0.6991    1.1515    0.5768 H         1 <0>         0.1414
     36 H5         -1.1713   -1.5209   -0.8609 H         1 <0>         0.0911
     37 H6         -0.8198   -2.3320    3.5324 H         1 <0>         0.0994
     38 H7         -1.2484    1.1938   -4.3046 H         1 <0>         0.3838
     39 H8         -1.7714    0.7150    1.8319 H         1 <0>         0.1447
     40 H9         -3.2841    2.5150    2.5236 H         1 <0>         0.1460
     41 H10        -0.2621    4.0252    5.1722 H         1 <0>         0.1372
     42 H11         1.2402    2.2160    4.4817 H         1 <0>         0.1480
     43 H12        -1.4843    5.3185    5.6037 H         1 <0>         0.4332
     44 H13        -3.8838    6.7695    4.7883 H         1 <0>         0.2017
     45 H14        -3.1240    8.4108    6.5321 H         1 <0>         0.1424
     46 H15        -1.7817    7.3124    6.9320 H         1 <0>         0.1257
     47 H16        -0.9655    7.4591    4.5951 H         1 <0>         0.1128
     48 H17        -2.3078    8.5575    4.1953 H         1 <0>         0.1260
     49 H18        -3.1661    0.4022   -1.3600 H         1 <0>         0.4277
@<TRIPOS>BOND
     1    1    2 1
     2    1   32 1
     3    1   34 1
     4    1   37 1
     5    2    3 1
     6    2    6 2
     7    3    4 1
     8    3   13 1
     9    3   33 1
    10    4   10 1
    11    4    5 1
    12    4   35 1
    13    5    7 1
    14    5   36 1
    15    5    6 1
    16    7    8 1
    17    7   49 1
    18    8    9 2
    19    8   12 1
    20    9   10 1
    21   10   11 2
    22   12   38 1
    23   13   14 1
    24   14   19 ar
    25   14   15 ar
    26   15   16 ar
    27   15   39 1
    28   16   17 ar
    29   16   40 1
    30   17   18 ar
    31   17   20 1
    32   18   19 ar
    33   18   41 1
    34   19   42 1
    35   20   21 2
    36   20   22 am
    37   22   23 1
    38   22   43 1
    39   23   24 1
    40   23   29 1
    41   23   44 1
    42   24   25 1
    43   24   45 1
    44   24   46 1
    45   25   26 1
    46   25   47 1
    47   25   48 1
    48   26   27 2
    49   26   28 1
    50   29   30 2
    51   29   31 1
@<TRIPOS>MOLECULE
CHEMBL336487__8
   50    52     0     0     0
SMALL
NO_CHARGES

@<TRIPOS>ATOM
      1 C1         -1.6740   -1.7650    3.1622 C.3       1 <0>        -0.1064
      2 C2         -1.3733   -1.2497    1.7783 C.2       1 <0>         0.1833
      3 C3          0.0055   -0.7912    1.2923 C.3       1 <0>        -0.0956
      4 C4         -0.3958    0.1837    0.1775 C.3       1 <0>        -0.2230
      5 C5         -1.5999   -0.6507   -0.3638 C.3       1 <0>         0.2868
      6 N1         -2.2436   -1.1346    0.8218 N.2       1 <0>        -0.4768
      7 N2         -2.2281    0.1556   -1.3787 N.pl3     1 <0>        -0.7341
      8 C6         -1.3570    0.5432   -2.3854 C.2       1 <0>         0.7111
      9 N3         -0.0473    0.5492   -2.1828 N.2       1 <0>        -0.6827
     10 C7          0.5256    0.3339   -0.9879 C.2       1 <0>         0.5460
     11 O1          1.7325    0.2643   -0.8613 O.2       1 <0>        -0.4687
     12 N4         -1.8529    0.9217   -3.5965 N.pl3     1 <0>        -0.8021
     13 S1          0.9155    0.0597    2.6108 S.3       1 <0>        -0.0015
     14 C8         -0.1693    1.3553    3.1098 C.ar      1 <0>        -0.0504
     15 C9         -1.4473    1.4417    2.5621 C.ar      1 <0>        -0.1674
     16 C10        -2.2936    2.4484    2.9488 C.ar      1 <0>        -0.0138
     17 C11        -1.8730    3.3892    3.8940 C.ar      1 <0>        -0.1627
     18 C12        -0.5896    3.3000    4.4420 C.ar      1 <0>        -0.0519
     19 C13         0.2505    2.2880    4.0555 C.ar      1 <0>        -0.1016
     20 C14        -2.7810    4.4736    4.3116 C.2       1 <0>         0.5551
     21 O2         -3.8967    4.5503    3.8340 O.2       1 <0>        -0.4602
     22 N5         -2.3743    5.3797    5.2227 N.am      1 <0>        -0.5894
     23 C15        -3.2763    6.4570    5.6376 C.3       1 <0>         0.1800
     24 C16        -2.4541    7.6450    6.1412 C.3       1 <0>        -0.1171
     25 C17        -1.6354    8.2249    4.9860 C.3       1 <0>        -0.1058
     26 C18        -0.8256    9.3950    5.4821 C.2       1 <0>         0.5083
     27 O3         -0.8967    9.7338    6.6511 O.co2     1 <0>        -0.5032
     28 O4         -0.0994   10.0030    4.7143 O.co2     1 <0>        -0.4831
     29 C19        -4.1740    5.9629    6.7426 C.2       1 <0>         0.5255
     30 O5         -3.9541    4.8865    7.2713 O.co2     1 <0>        -0.3826
     31 O6         -5.1201    6.6396    7.1080 O.co2     1 <0>        -0.3693
     32 H1         -1.8684   -0.9246    3.8285 H         1 <0>         0.0959
     33 H2          0.5812   -1.6275    0.8956 H         1 <0>         0.1589
     34 H3         -2.5511   -2.4111    3.1268 H         1 <0>         0.0947
     35 H4         -0.6991    1.1515    0.5768 H         1 <0>         0.1340
     36 H5         -1.1713   -1.5209   -0.8609 H         1 <0>         0.0888
     37 H6         -0.8198   -2.3320    3.5324 H         1 <0>         0.0985
     38 H7         -2.8106    0.9189   -3.7508 H         1 <0>         0.4165
     39 H8         -1.2484    1.1938   -4.3046 H         1 <0>         0.4327
     40 H9         -1.7714    0.7150    1.8319 H         1 <0>         0.1453
     41 H10        -3.2841    2.5150    2.5236 H         1 <0>         0.1442
     42 H11        -0.2621    4.0252    5.1722 H         1 <0>         0.1362
     43 H12         1.2402    2.2160    4.4817 H         1 <0>         0.1474
     44 H13        -1.4843    5.3185    5.6037 H         1 <0>         0.4325
     45 H14        -3.8838    6.7695    4.7883 H         1 <0>         0.2038
     46 H15        -3.1240    8.4108    6.5321 H         1 <0>         0.1445
     47 H16        -1.7817    7.3124    6.9320 H         1 <0>         0.1242
     48 H17        -0.9655    7.4591    4.5951 H         1 <0>         0.1133
     49 H18        -2.3078    8.5575    4.1953 H         1 <0>         0.1253
     50 H19        -3.1661    0.4022   -1.3600 H         1 <0>         0.4165
@<TRIPOS>BOND
     1    1    2 1
     2    1   32 1
     3    1   34 1
     4    1   37 1
     5    2    3 1
     6    2    6 2
     7    3    4 1
     8    3   13 1
     9    3   33 1
    10    4   10 1
    11    4    5 1
    12    4   35 1
    13    5    7 1
    14    5   36 1
    15    5    6 1
    16    7    8 1
    17    7   50 1
    18    8    9 2
    19    8   12 1
    20    9   10 1
    21   10   11 2
    22   12   38 1
    23   12   39 1
    24   13   14 1
    25   14   19 ar
    26   14   15 ar
    27   15   16 ar
    28   15   40 1
    29   16   17 ar
    30   16   41 1
    31   17   18 ar
    32   17   20 1
    33   18   19 ar
    34   18   42 1
    35   19   43 1
    36   20   21 2
    37   20   22 am
    38   22   23 1
    39   22   44 1
    40   23   24 1
    41   23   29 1
    42   23   45 1
    43   24   25 1
    44   24   46 1
    45   24   47 1
    46   25   26 1
    47   25   48 1
    48   25   49 1
    49   26   27 2
    50   26   28 1
    51   29   30 2
    52   29   31 1
@<TRIPOS>MOLECULE
CHEMBL336487__9
   49    51     0     0     0
SMALL
USER_CHARGES

@<TRIPOS>ATOM
      1 C1         -0.0139   -1.8307   -2.1701 C.3       1 <0>        -0.0875
      2 C2         -0.1394   -1.6587   -0.6783 C.2       1 <0>         0.2633
      3 C3         -1.1479   -0.7922   -0.0054 C.2       1 <0>        -0.6063
      4 C4         -0.4409   -0.4635    1.2850 C.3       1 <0>        -0.0840
      5 C5          0.1801   -1.8773    1.5256 C.3       1 <0>         0.3127
      6 N1          0.6217   -2.2563    0.2110 N.2       1 <0>        -0.6484
      7 N2          1.0534   -1.7339    2.6656 N.pl3     1 <0>        -0.7373
      8 C6          0.4076   -1.2394    3.7881 C.2       1 <0>         0.6901
      9 N3         -0.7275   -0.5642    3.6770 N.2       1 <0>        -0.7056
     10 C7         -1.2558   -0.1833    2.5021 C.2       1 <0>         0.5305
     11 O1         -2.3403    0.3613    2.4347 O.2       1 <0>        -0.4758
     12 N4          0.9464   -1.4505    5.0214 N.pl3     1 <0>        -0.8297
     13 S1         -2.6476   -0.3165   -0.5347 S.3       1 <0>         0.1007
     14 C8         -2.3604    1.2592   -1.2691 C.ar      1 <0>        -0.1098
     15 C9         -1.0593    1.7549   -1.3707 C.ar      1 <0>        -0.1376
     16 C10        -0.8342    2.9855   -1.9442 C.ar      1 <0>        -0.0554
     17 C11        -1.9084    3.7389   -2.4250 C.ar      1 <0>        -0.1553
     18 C12        -3.2105    3.2421   -2.3231 C.ar      1 <0>        -0.0737
     19 C13        -3.4336    2.0088   -1.7544 C.ar      1 <0>        -0.1387
     20 C14        -1.6677    5.0603   -3.0405 C.2       1 <0>         0.5618
     21 O2         -0.5348    5.4924   -3.1287 O.2       1 <0>        -0.5693
     22 N5         -2.7040    5.7867   -3.5041 N.am      1 <0>        -0.6849
     23 C15        -2.4652    7.0970   -4.1144 C.3       1 <0>         0.0749
     24 C16        -3.6073    7.4267   -5.0776 C.3       1 <0>        -0.0782
     25 C17        -3.5979    6.4313   -6.2395 C.3       1 <0>        -0.1782
     26 C18        -4.7228    6.7560   -7.1883 C.2       1 <0>         0.4926
     27 O3         -5.4634    7.6964   -6.9566 O.co2     1 <0>        -0.7002
     28 O4         -4.8923    6.0783   -8.1875 O.co2     1 <0>        -0.7225
     29 C19        -2.3977    8.1482   -3.0367 C.2       1 <0>         0.4950
     30 O5         -2.5362    7.8322   -1.8673 O.co2     1 <0>        -0.6930
     31 O6         -2.2046    9.3147   -3.3342 O.co2     1 <0>        -0.7097
     32 H1          0.8458   -2.4629   -2.3920 H         1 <0>         0.0516
     33 H2         -0.9185   -2.2979   -2.5594 H         1 <0>         0.0700
     34 H3          0.1217   -0.8556   -2.6381 H         1 <0>         0.0711
     35 H4          0.3182    0.3042    1.1348 H         1 <0>         0.0515
     36 H5         -0.6291   -2.5481    1.8141 H         1 <0>         0.0418
     37 H6          1.7767   -1.9440    5.1100 H         1 <0>         0.4024
     38 H7          1.9963   -1.9609    2.6483 H         1 <0>         0.3929
     39 H8         -0.2292    1.1727   -0.9987 H         1 <0>         0.1200
     40 H9          0.1723    3.3691   -2.0224 H         1 <0>         0.1159
     41 H10        -4.0412    3.8240   -2.6942 H         1 <0>         0.1149
     42 H11        -4.4394    1.6227   -1.6796 H         1 <0>         0.1138
     43 H12        -3.6079    5.4419   -3.4338 H         1 <0>         0.3886
     44 H13        -1.5228    7.0766   -4.6616 H         1 <0>         0.0738
     45 H14        -4.5586    7.3599   -4.5497 H         1 <0>         0.0536
     46 H15        -3.4763    8.4374   -5.4640 H         1 <0>         0.0748
     47 H16        -2.6466    6.4980   -6.7674 H         1 <0>         0.0510
     48 H17        -3.7289    5.4205   -5.8531 H         1 <0>         0.0538
     49 H18         0.4997   -1.1072    5.8111 H         1 <0>         0.4182
@<TRIPOS>BOND
     1    1    2 1
     2    1   32 1
     3    1   33 1
     4    1   34 1
     5    2    6 2
     6    2    3 1
     7    3   13 1
     8    3    4 1
     9    4   10 1
    10    4    5 1
    11    4   35 1
    12    5    6 1
    13    5   36 1
    14    5    7 1
    15    7   38 1
    16    7    8 1
    17    8   12 1
    18    8    9 2
    19    9   10 1
    20   10   11 2
    21   12   37 1
    22   12   49 1
    23   13   14 1
    24   14   19 ar
    25   14   15 ar
    26   15   16 ar
    27   15   39 1
    28   16   17 ar
    29   16   40 1
    30   17   18 ar
    31   17   20 1
    32   18   19 ar
    33   18   41 1
    34   19   42 1
    35   20   21 2
    36   20   22 am
    37   22   23 1
    38   22   43 1
    39   23   24 1
    40   23   29 1
    41   23   44 1
    42   24   25 1
    43   24   45 1
    44   24   46 1
    45   25   26 1
    46   25   47 1
    47   25   48 1
    48   26   27 2
    49   26   28 1
    50   29   30 2
    51   29   31 1
@<TRIPOS>MOLECULE
CHEMBL336487__10
   49    51     0     0     0
SMALL
NO_CHARGES

@<TRIPOS>ATOM
      1 C1         -1.6740   -1.7650    3.1622 C.3       1 <0>        -0.1063
      2 C2         -1.3733   -1.2497    1.7783 C.2       1 <0>         0.1850
      3 C3          0.0055   -0.7912    1.2923 C.3       1 <0>        -0.0962
      4 C4         -0.3958    0.1837    0.1775 C.3       1 <0>        -0.2229
      5 C5         -1.5999   -0.6507   -0.3638 C.3       1 <0>         0.2851
      6 N1         -2.2436   -1.1346    0.8218 N.2       1 <0>        -0.4706
      7 N2         -2.2281    0.1556   -1.3787 N.pl3     1 <0>        -0.6964
      8 C6         -1.3570    0.5432   -2.3854 C.2       1 <0>         0.5680
      9 N3         -0.0473    0.5492   -2.1828 N.2       1 <0>        -0.5312
     10 C7          0.5256    0.3339   -0.9879 C.2       1 <0>         0.5057
     11 O1          1.7325    0.2643   -0.8613 O.2       1 <0>        -0.4032
     12 N4         -1.8529    0.9217   -3.5965 N.2       1 <0>        -0.4475
     13 S1          0.9155    0.0597    2.6108 S.3       1 <0>        -0.0011
     14 C8         -0.1693    1.3553    3.1098 C.ar      1 <0>        -0.0535
     15 C9         -1.4473    1.4417    2.5621 C.ar      1 <0>        -0.1675
     16 C10        -2.2936    2.4484    2.9488 C.ar      1 <0>        -0.0134
     17 C11        -1.8730    3.3892    3.8940 C.ar      1 <0>        -0.1599
     18 C12        -0.5896    3.3000    4.4420 C.ar      1 <0>        -0.0522
     19 C13         0.2505    2.2880    4.0555 C.ar      1 <0>        -0.1004
     20 C14        -2.7810    4.4736    4.3116 C.2       1 <0>         0.5555
     21 O2         -3.8967    4.5503    3.8340 O.2       1 <0>        -0.4570
     22 N5         -2.3743    5.3797    5.2227 N.am      1 <0>        -0.5912
     23 C15        -3.2763    6.4570    5.6376 C.3       1 <0>         0.1809
     24 C16        -2.8859    6.9387    7.0364 C.3       1 <0>        -0.1175
     25 C17        -3.1112    5.8110    8.0455 C.3       1 <0>        -0.1063
     26 C18        -2.7267    6.2854    9.4232 C.2       1 <0>         0.5082
     27 O3         -2.3110    7.4204    9.5831 O.co2     1 <0>        -0.5020
     28 O4         -2.8313    5.5344   10.3779 O.co2     1 <0>        -0.4831
     29 C19        -3.1715    7.6027    4.6643 C.2       1 <0>         0.5246
     30 O5         -2.4136    7.5265    3.7123 O.co2     1 <0>        -0.3826
     31 O6         -3.8445    8.6059    4.8289 O.co2     1 <0>        -0.3679
     32 H1         -1.8684   -0.9246    3.8285 H         1 <0>         0.0969
     33 H2          0.5812   -1.6275    0.8956 H         1 <0>         0.1607
     34 H3         -2.5511   -2.4111    3.1268 H         1 <0>         0.0963
     35 H4         -0.6991    1.1515    0.5768 H         1 <0>         0.1415
     36 H5         -1.1713   -1.5209   -0.8609 H         1 <0>         0.0911
     37 H6         -0.8198   -2.3320    3.5324 H         1 <0>         0.0993
     38 H7         -1.2484    1.1938   -4.3046 H         1 <0>         0.3838
     39 H8         -1.7714    0.7150    1.8319 H         1 <0>         0.1445
     40 H9         -3.2841    2.5150    2.5236 H         1 <0>         0.1458
     41 H10        -0.2621    4.0252    5.1722 H         1 <0>         0.1366
     42 H11         1.2402    2.2160    4.4817 H         1 <0>         0.1476
     43 H12        -1.4843    5.3185    5.6037 H         1 <0>         0.4320
     44 H13        -4.3013    6.0866    5.6538 H         1 <0>         0.2051
     45 H14        -1.8345    7.2261    7.0414 H         1 <0>         0.1234
     46 H15        -3.4987    7.7979    7.3089 H         1 <0>         0.1457
     47 H16        -4.1626    5.5236    8.0405 H         1 <0>         0.1255
     48 H17        -2.4984    4.9517    7.7729 H         1 <0>         0.1136
     49 H18        -3.1661    0.4022   -1.3600 H         1 <0>         0.4277
@<TRIPOS>BOND
     1    1    2 1
     2    1   32 1
     3    1   34 1
     4    1   37 1
     5    2    3 1
     6    2    6 2
     7    3    4 1
     8    3   13 1
     9    3   33 1
    10    4   10 1
    11    4    5 1
    12    4   35 1
    13    5    7 1
    14    5   36 1
    15    5    6 1
    16    7    8 1
    17    7   49 1
    18    8    9 2
    19    8   12 1
    20    9   10 1
    21   10   11 2
    22   12   38 1
    23   13   14 1
    24   14   19 ar
    25   14   15 ar
    26   15   16 ar
    27   15   39 1
    28   16   17 ar
    29   16   40 1
    30   17   18 ar
    31   17   20 1
    32   18   19 ar
    33   18   41 1
    34   19   42 1
    35   20   21 2
    36   20   22 am
    37   22   23 1
    38   22   43 1
    39   23   24 1
    40   23   29 1
    41   23   44 1
    42   24   25 1
    43   24   45 1
    44   24   46 1
    45   25   26 1
    46   25   47 1
    47   25   48 1
    48   26   27 2
    49   26   28 1
    50   29   30 2
    51   29   31 1
@<TRIPOS>MOLECULE
CHEMBL336487__11
   50    52     0     0     0
SMALL
NO_CHARGES

@<TRIPOS>ATOM
      1 C1         -1.6740   -1.7650    3.1622 C.3       1 <0>        -0.1060
      2 C2         -1.3733   -1.2497    1.7783 C.2       1 <0>         0.1830
      3 C3          0.0055   -0.7912    1.2923 C.3       1 <0>        -0.0957
      4 C4         -0.3958    0.1837    0.1775 C.3       1 <0>        -0.2233
      5 C5         -1.5999   -0.6507   -0.3638 C.3       1 <0>         0.2869
      6 N1         -2.2436   -1.1346    0.8218 N.2       1 <0>        -0.4765
      7 N2         -2.2281    0.1556   -1.3787 N.pl3     1 <0>        -0.7341
      8 C6         -1.3570    0.5432   -2.3854 C.2       1 <0>         0.7111
      9 N3         -0.0473    0.5492   -2.1828 N.2       1 <0>        -0.6828
     10 C7          0.5256    0.3339   -0.9879 C.2       1 <0>         0.5461
     11 O1          1.7325    0.2643   -0.8613 O.2       1 <0>        -0.4688
     12 N4         -1.8529    0.9217   -3.5965 N.pl3     1 <0>        -0.8020
     13 S1          0.9155    0.0597    2.6108 S.3       1 <0>        -0.0008
     14 C8         -0.1693    1.3553    3.1098 C.ar      1 <0>        -0.0499
     15 C9         -1.4473    1.4417    2.5621 C.ar      1 <0>        -0.1675
     16 C10        -2.2936    2.4484    2.9488 C.ar      1 <0>        -0.0135
     17 C11        -1.8730    3.3892    3.8940 C.ar      1 <0>        -0.1641
     18 C12        -0.5896    3.3000    4.4420 C.ar      1 <0>        -0.0516
     19 C13         0.2505    2.2880    4.0555 C.ar      1 <0>        -0.1016
     20 C14        -2.7810    4.4736    4.3116 C.2       1 <0>         0.5525
     21 O2         -3.8967    4.5503    3.8340 O.2       1 <0>        -0.4588
     22 N5         -2.3743    5.3797    5.2227 N.am      1 <0>        -0.5870
     23 C15        -3.2763    6.4570    5.6376 C.3       1 <0>         0.1799
     24 C16        -2.8859    6.9387    7.0364 C.3       1 <0>        -0.1173
     25 C17        -3.1112    5.8110    8.0455 C.3       1 <0>        -0.1053
     26 C18        -2.7267    6.2854    9.4232 C.2       1 <0>         0.5082
     27 O3         -2.3110    7.4204    9.5831 O.co2     1 <0>        -0.5052
     28 O4         -2.8313    5.5344   10.3779 O.co2     1 <0>        -0.4848
     29 C19        -3.1715    7.6027    4.6643 C.2       1 <0>         0.5246
     30 O5         -4.1352    8.3220    4.4633 O.co2     1 <0>        -0.3689
     31 O6         -2.1229    7.8104    4.0779 O.co2     1 <0>        -0.3790
     32 H1         -1.8684   -0.9246    3.8285 H         1 <0>         0.0957
     33 H2          0.5812   -1.6275    0.8956 H         1 <0>         0.1590
     34 H3         -2.5511   -2.4111    3.1268 H         1 <0>         0.0947
     35 H4         -0.6991    1.1515    0.5768 H         1 <0>         0.1339
     36 H5         -1.1713   -1.5209   -0.8609 H         1 <0>         0.0889
     37 H6         -0.8198   -2.3320    3.5324 H         1 <0>         0.0985
     38 H7         -2.8106    0.9189   -3.7508 H         1 <0>         0.4166
     39 H8         -1.2484    1.1938   -4.3046 H         1 <0>         0.4327
     40 H9         -1.7714    0.7150    1.8319 H         1 <0>         0.1455
     41 H10        -3.2841    2.5150    2.5236 H         1 <0>         0.1444
     42 H11        -0.2621    4.0252    5.1722 H         1 <0>         0.1366
     43 H12         1.2402    2.2160    4.4817 H         1 <0>         0.1477
     44 H13        -1.4843    5.3185    5.6037 H         1 <0>         0.4334
     45 H14        -4.3013    6.0866    5.6538 H         1 <0>         0.2021
     46 H15        -1.8345    7.2261    7.0414 H         1 <0>         0.1255
     47 H16        -3.4987    7.7979    7.3089 H         1 <0>         0.1421
     48 H17        -4.1626    5.5236    8.0405 H         1 <0>         0.1258
     49 H18        -2.4984    4.9517    7.7729 H         1 <0>         0.1129
     50 H19        -3.1661    0.4022   -1.3600 H         1 <0>         0.4165
@<TRIPOS>BOND
     1    1    2 1
     2    1   32 1
     3    1   34 1
     4    1   37 1
     5    2    3 1
     6    2    6 2
     7    3    4 1
     8    3   13 1
     9    3   33 1
    10    4   10 1
    11    4    5 1
    12    4   35 1
    13    5    7 1
    14    5   36 1
    15    5    6 1
    16    7    8 1
    17    7   50 1
    18    8    9 2
    19    8   12 1
    20    9   10 1
    21   10   11 2
    22   12   38 1
    23   12   39 1
    24   13   14 1
    25   14   19 ar
    26   14   15 ar
    27   15   16 ar
    28   15   40 1
    29   16   17 ar
    30   16   41 1
    31   17   18 ar
    32   17   20 1
    33   18   19 ar
    34   18   42 1
    35   19   43 1
    36   20   21 2
    37   20   22 am
    38   22   23 1
    39   22   44 1
    40   23   24 1
    41   23   29 1
    42   23   45 1
    43   24   25 1
    44   24   46 1
    45   24   47 1
    46   25   26 1
    47   25   48 1
    48   25   49 1
    49   26   27 2
    50   26   28 1
    51   29   30 2
    52   29   31 1
@<TRIPOS>MOLECULE
CHEMBL336487__12
   49    51     0     0     0
SMALL
USER_CHARGES

@<TRIPOS>ATOM
      1 C1          0.2092   -1.2185    2.2322 C.3       1 <0>        -0.0882
      2 C2         -0.0251   -1.3970    0.7542 C.2       1 <0>         0.2655
      3 C3         -1.2558   -0.9680    0.0319 C.2       1 <0>        -0.6075
      4 C4         -0.7198   -0.7483   -1.3600 C.3       1 <0>        -0.0844
      5 C5          0.2405   -1.9809   -1.3895 C.3       1 <0>         0.3129
      6 N1          0.8299   -1.9475   -0.0783 N.2       1 <0>        -0.6485
      7 N2          0.9924   -1.8638   -2.6158 N.pl3     1 <0>        -0.7372
      8 C6          0.1889   -1.7895   -3.7429 C.2       1 <0>         0.6904
      9 N3         -1.0778   -1.4102   -3.6507 N.2       1 <0>        -0.7064
     10 C7         -1.6341   -0.9384   -2.5228 C.2       1 <0>         0.5306
     11 O1         -2.8196   -0.6795   -2.4537 O.2       1 <0>        -0.4771
     12 N4          0.7079   -2.1101   -4.9609 N.pl3     1 <0>        -0.8295
     13 S1         -2.8024   -0.7824    0.6057 S.3       1 <0>         0.1032
     14 C8         -2.8627    0.8977    1.1330 C.ar      1 <0>        -0.1111
     15 C9         -1.7800    1.7448    0.8891 C.ar      1 <0>        -0.1364
     16 C10        -1.8264    3.0573    1.3007 C.ar      1 <0>        -0.0551
     17 C11        -2.9575    3.5420    1.9628 C.ar      1 <0>        -0.1578
     18 C12        -4.0407    2.6935    2.2066 C.ar      1 <0>        -0.0728
     19 C13        -3.9953    1.3828    1.7894 C.ar      1 <0>        -0.1395
     20 C14        -3.0078    4.9507    2.4054 C.2       1 <0>         0.5549
     21 O2         -2.0651    5.6884    2.1936 O.2       1 <0>        -0.5676
     22 N5         -4.0989    5.4178    3.0440 N.am      1 <0>        -0.6846
     23 C15        -4.1488    6.8147    3.4829 C.3       1 <0>         0.0758
     24 C16        -5.1176    6.9452    4.6599 C.3       1 <0>        -0.0802
     25 C17        -4.5733    6.1638    5.8574 C.3       1 <0>        -0.1775
     26 C18        -5.5276    6.2924    7.0167 C.2       1 <0>         0.4928
     27 O3         -6.5483    6.9481    6.8963 O.co2     1 <0>        -0.7006
     28 O4         -5.2788    5.7406    8.0751 O.co2     1 <0>        -0.7218
     29 C19        -4.6213    7.6822    2.3448 C.2       1 <0>         0.4984
     30 O5         -5.3805    7.2275    1.5061 O.co2     1 <0>        -0.6970
     31 O6         -4.2444    8.8388    2.2627 O.co2     1 <0>        -0.7095
     32 H1          1.1516   -1.6903    2.5102 H         1 <0>         0.0516
     33 H2          0.2518   -0.1551    2.4675 H         1 <0>         0.0708
     34 H3         -0.6065   -1.6812    2.7878 H         1 <0>         0.0714
     35 H4         -0.1840    0.1983   -1.4320 H         1 <0>         0.0513
     36 H5         -0.3754   -2.8769   -1.4661 H         1 <0>         0.0426
     37 H6          1.6342   -2.3882   -5.0355 H         1 <0>         0.4026
     38 H7          1.9616   -1.8390   -2.6480 H         1 <0>         0.3933
     39 H8         -0.9058    1.3700    0.3776 H         1 <0>         0.1197
     40 H9         -0.9887    3.7124    1.1123 H         1 <0>         0.1161
     41 H10        -4.9151    3.0674    2.7186 H         1 <0>         0.1159
     42 H11        -4.8342    0.7281    1.9738 H         1 <0>         0.1143
     43 H12        -4.8511    4.8292    3.2131 H         1 <0>         0.3908
     44 H13        -3.1540    7.1335    3.7940 H         1 <0>         0.0738
     45 H14        -5.2227    7.9961    4.9291 H         1 <0>         0.0681
     46 H15        -6.0904    6.5438    4.3759 H         1 <0>         0.0588
     47 H16        -4.4682    5.1129    5.5882 H         1 <0>         0.0548
     48 H17        -3.6005    6.5652    6.1414 H         1 <0>         0.0515
     49 H18         0.1511   -2.0603   -5.7537 H         1 <0>         0.4182
@<TRIPOS>BOND
     1    1    2 1
     2    1   32 1
     3    1   33 1
     4    1   34 1
     5    2    6 2
     6    2    3 1
     7    3   13 1
     8    3    4 1
     9    4   10 1
    10    4    5 1
    11    4   35 1
    12    5    6 1
    13    5   36 1
    14    5    7 1
    15    7   38 1
    16    7    8 1
    17    8   12 1
    18    8    9 2
    19    9   10 1
    20   10   11 2
    21   12   37 1
    22   12   49 1
    23   13   14 1
    24   14   19 ar
    25   14   15 ar
    26   15   16 ar
    27   15   39 1
    28   16   17 ar
    29   16   40 1
    30   17   18 ar
    31   17   20 1
    32   18   19 ar
    33   18   41 1
    34   19   42 1
    35   20   21 2
    36   20   22 am
    37   22   23 1
    38   22   43 1
    39   23   24 1
    40   23   29 1
    41   23   44 1
    42   24   25 1
    43   24   45 1
    44   24   46 1
    45   25   26 1
    46   25   47 1
    47   25   48 1
    48   26   27 2
    49   26   28 1
    50   29   30 2
    51   29   31 1
@<TRIPOS>MOLECULE
CHEMBL336487__13
   49    51     0     0     0
SMALL
NO_CHARGES

@<TRIPOS>ATOM
      1 C1         -0.0184    1.5028    0.0103 C.3       1 <0>        -0.1184
      2 C2          0.0021   -0.0041    0.0020 C.2       1 <0>         0.1830
      3 C3          0.0260   -0.8889    1.2527 C.3       1 <0>        -0.0970
      4 C4         -0.6138   -2.1717    0.7056 C.3       1 <0>        -0.1890
      5 C5          0.0688   -2.1263   -0.6984 C.3       1 <0>         0.2902
      6 N1         -0.0036   -0.7425   -1.0659 N.2       1 <0>        -0.4623
      7 N2         -0.4949   -3.2123   -1.4585 N.pl3     1 <0>        -0.6955
      8 C6         -0.3517   -4.4447   -0.8394 C.2       1 <0>         0.5683
      9 N3         -0.1398   -4.5263    0.4663 N.2       1 <0>        -0.5317
     10 C7         -0.1905   -3.4747    1.2994 C.2       1 <0>         0.5024
     11 O1          0.0939   -3.5780    2.4766 O.2       1 <0>        -0.4038
     12 N4         -0.4303   -5.5844   -1.5815 N.2       1 <0>        -0.4467
     13 S1         -0.9781   -0.1714    2.5822 S.3       1 <0>        -0.0137
     14 C8         -0.1178    1.3034    3.0176 C.ar      1 <0>        -0.0554
     15 C9          1.0541    1.6480    2.3479 C.ar      1 <0>        -0.1423
     16 C10         1.7253    2.7951    2.6842 C.ar      1 <0>        -0.0215
     17 C11         1.2325    3.6195    3.7005 C.ar      1 <0>        -0.1587
     18 C12         0.0559    3.2709    4.3710 C.ar      1 <0>        -0.0546
     19 C13        -0.6139    2.1254    4.0268 C.ar      1 <0>        -0.0997
     20 C14         1.9525    4.8539    4.0649 C.2       1 <0>         0.5519
     21 O2          2.9758    5.1557    3.4814 O.2       1 <0>        -0.4570
     22 N5          1.4764    5.6475    5.0447 N.am      1 <0>        -0.5882
     23 C15         2.1917    6.8737    5.4067 C.3       1 <0>         0.1799
     24 C16         1.8648    7.2464    6.8541 C.3       1 <0>        -0.1173
     25 C17         2.4086    6.1683    7.7937 C.3       1 <0>        -0.1049
     26 C18         2.0866    6.5354    9.2193 C.2       1 <0>         0.5081
     27 O3          1.4785    7.5640    9.4615 O.co2     1 <0>        -0.5043
     28 O4          2.4342    5.8038   10.1306 O.co2     1 <0>        -0.4833
     29 C19         1.7657    7.9926    4.4914 C.2       1 <0>         0.5248
     30 O5          0.6410    8.0003    4.0206 O.co2     1 <0>        -0.3798
     31 O6          2.5457    8.8900    4.2216 O.co2     1 <0>        -0.3687
     32 H1          1.0042    1.8801    0.0026 H         1 <0>         0.1002
     33 H2          1.0474   -1.0701    1.5873 H         1 <0>         0.1350
     34 H3         -0.5455    1.8639   -0.8728 H         1 <0>         0.0977
     35 H4         -1.6993   -2.0898    0.6494 H         1 <0>         0.1402
     36 H5          1.1215   -2.3574   -0.5354 H         1 <0>         0.0901
     37 H6         -0.5286    1.8543    0.9071 H         1 <0>         0.0964
     38 H7         -0.3309   -6.4494   -1.1539 H         1 <0>         0.3839
     39 H8          1.4344    1.0108    1.5633 H         1 <0>         0.1401
     40 H9          2.6339    3.0616    2.1649 H         1 <0>         0.1486
     41 H10        -0.3270    3.9058    5.1564 H         1 <0>         0.1361
     42 H11        -1.5251    1.8580    4.5413 H         1 <0>         0.1461
     43 H12         0.6601    5.4068    5.5102 H         1 <0>         0.4333
     44 H13         3.2649    6.7113    5.3068 H         1 <0>         0.2021
     45 H14         2.3251    8.2045    7.0954 H         1 <0>         0.1421
     46 H15         0.7841    7.3220    6.9747 H         1 <0>         0.1254
     47 H16         1.9482    5.2102    7.5523 H         1 <0>         0.1132
     48 H17         3.4893    6.0927    7.6731 H         1 <0>         0.1261
     49 H18        -0.9307   -3.0934   -2.3169 H         1 <0>         0.4286
@<TRIPOS>BOND
     1    1    2 1
     2    1   32 1
     3    1   34 1
     4    1   37 1
     5    2    3 1
     6    2    6 2
     7    3    4 1
     8    3   13 1
     9    3   33 1
    10    4   10 1
    11    4    5 1
    12    4   35 1
    13    5    7 1
    14    5   36 1
    15    5    6 1
    16    7    8 1
    17    7   49 1
    18    8    9 2
    19    8   12 1
    20    9   10 1
    21   10   11 2
    22   12   38 1
    23   13   14 1
    24   14   19 ar
    25   14   15 ar
    26   15   16 ar
    27   15   39 1
    28   16   17 ar
    29   16   40 1
    30   17   18 ar
    31   17   20 1
    32   18   19 ar
    33   18   41 1
    34   19   42 1
    35   20   21 2
    36   20   22 am
    37   22   23 1
    38   22   43 1
    39   23   24 1
    40   23   29 1
    41   23   44 1
    42   24   25 1
    43   24   45 1
    44   24   46 1
    45   25   26 1
    46   25   47 1
    47   25   48 1
    48   26   27 2
    49   26   28 1
    50   29   30 2
    51   29   31 1
@<TRIPOS>MOLECULE
CHEMBL336487__14
   50    52     0     0     0
SMALL
NO_CHARGES

@<TRIPOS>ATOM
      1 C1         -0.0184    1.5028    0.0103 C.3       1 <0>        -0.1178
      2 C2          0.0021   -0.0041    0.0020 C.2       1 <0>         0.1812
      3 C3          0.0260   -0.8889    1.2527 C.3       1 <0>        -0.0953
      4 C4         -0.6138   -2.1717    0.7056 C.3       1 <0>        -0.1904
      5 C5          0.0688   -2.1263   -0.6984 C.3       1 <0>         0.2921
      6 N1         -0.0036   -0.7425   -1.0659 N.2       1 <0>        -0.4689
      7 N2         -0.4949   -3.2123   -1.4585 N.pl3     1 <0>        -0.7334
      8 C6         -0.3517   -4.4447   -0.8394 C.2       1 <0>         0.7115
      9 N3         -0.1398   -4.5263    0.4663 N.2       1 <0>        -0.6833
     10 C7         -0.1905   -3.4747    1.2994 C.2       1 <0>         0.5429
     11 O1          0.0939   -3.5780    2.4766 O.2       1 <0>        -0.4696
     12 N4         -0.4303   -5.5844   -1.5815 N.pl3     1 <0>        -0.8019
     13 S1         -0.9781   -0.1714    2.5822 S.3       1 <0>        -0.0129
     14 C8         -0.1178    1.3034    3.0176 C.ar      1 <0>        -0.0546
     15 C9          1.0541    1.6480    2.3479 C.ar      1 <0>        -0.1428
     16 C10         1.7253    2.7951    2.6842 C.ar      1 <0>        -0.0214
     17 C11         1.2325    3.6195    3.7005 C.ar      1 <0>        -0.1593
     18 C12         0.0559    3.2709    4.3710 C.ar      1 <0>        -0.0547
     19 C13        -0.6139    2.1254    4.0268 C.ar      1 <0>        -0.1010
     20 C14         1.9525    4.8539    4.0649 C.2       1 <0>         0.5544
     21 O2          2.9758    5.1557    3.4814 O.2       1 <0>        -0.4588
     22 N5          1.4764    5.6475    5.0447 N.am      1 <0>        -0.5884
     23 C15         2.1917    6.8737    5.4067 C.3       1 <0>         0.1796
     24 C16         1.8648    7.2464    6.8541 C.3       1 <0>        -0.1170
     25 C17         2.4086    6.1683    7.7937 C.3       1 <0>        -0.1060
     26 C18         2.0866    6.5354    9.2193 C.2       1 <0>         0.5082
     27 O3          1.4785    7.5640    9.4615 O.co2     1 <0>        -0.5045
     28 O4          2.4342    5.8038   10.1306 O.co2     1 <0>        -0.4839
     29 C19         1.7657    7.9926    4.4914 C.2       1 <0>         0.5259
     30 O5          0.8164    7.8390    3.7418 O.co2     1 <0>        -0.3833
     31 O6          2.3703    9.0513    4.5004 O.co2     1 <0>        -0.3696
     32 H1          1.0042    1.8801    0.0026 H         1 <0>         0.0991
     33 H2          1.0474   -1.0701    1.5873 H         1 <0>         0.1332
     34 H3         -0.5455    1.8639   -0.8728 H         1 <0>         0.0958
     35 H4         -1.6993   -2.0898    0.6494 H         1 <0>         0.1317
     36 H5          1.1215   -2.3574   -0.5354 H         1 <0>         0.0880
     37 H6         -0.5286    1.8543    0.9071 H         1 <0>         0.0959
     38 H7         -0.5856   -5.5309   -2.5375 H         1 <0>         0.4167
     39 H8         -0.3309   -6.4494   -1.1539 H         1 <0>         0.4327
     40 H9          1.4344    1.0108    1.5633 H         1 <0>         0.1399
     41 H10         2.6339    3.0616    2.1649 H         1 <0>         0.1478
     42 H11        -0.3270    3.9058    5.1564 H         1 <0>         0.1352
     43 H12        -1.5251    1.8580    4.5413 H         1 <0>         0.1456
     44 H13         0.6601    5.4068    5.5102 H         1 <0>         0.4326
     45 H14         3.2649    6.7113    5.3068 H         1 <0>         0.2045
     46 H15         2.3251    8.2045    7.0954 H         1 <0>         0.1442
     47 H16         0.7841    7.3220    6.9747 H         1 <0>         0.1238
     48 H17         1.9482    5.2102    7.5523 H         1 <0>         0.1135
     49 H18         3.4893    6.0927    7.6731 H         1 <0>         0.1254
     50 H19        -0.9307   -3.0934   -2.3169 H         1 <0>         0.4174
@<TRIPOS>BOND
     1    1    2 1
     2    1   32 1
     3    1   34 1
     4    1   37 1
     5    2    3 1
     6    2    6 2
     7    3    4 1
     8    3   13 1
     9    3   33 1
    10    4   10 1
    11    4    5 1
    12    4   35 1
    13    5    7 1
    14    5   36 1
    15    5    6 1
    16    7    8 1
    17    7   50 1
    18    8    9 2
    19    8   12 1
    20    9   10 1
    21   10   11 2
    22   12   38 1
    23   12   39 1
    24   13   14 1
    25   14   19 ar
    26   14   15 ar
    27   15   16 ar
    28   15   40 1
    29   16   17 ar
    30   16   41 1
    31   17   18 ar
    32   17   20 1
    33   18   19 ar
    34   18   42 1
    35   19   43 1
    36   20   21 2
    37   20   22 am
    38   22   23 1
    39   22   44 1
    40   23   24 1
    41   23   29 1
    42   23   45 1
    43   24   25 1
    44   24   46 1
    45   24   47 1
    46   25   26 1
    47   25   48 1
    48   25   49 1
    49   26   27 2
    50   26   28 1
    51   29   30 2
    52   29   31 1
@<TRIPOS>MOLECULE
CHEMBL336487__15
   49    51     0     0     0
SMALL
USER_CHARGES

@<TRIPOS>ATOM
      1 C1          0.2092   -1.2185    2.2322 C.3       1 <0>        -0.0885
      2 C2         -0.0251   -1.3970    0.7542 C.2       1 <0>         0.2657
      3 C3         -1.2558   -0.9680    0.0319 C.2       1 <0>        -0.6073
      4 C4         -0.7198   -0.7483   -1.3600 C.3       1 <0>        -0.0840
      5 C5          0.2405   -1.9809   -1.3895 C.3       1 <0>         0.3129
      6 N1          0.8299   -1.9475   -0.0783 N.2       1 <0>        -0.6489
      7 N2          0.9924   -1.8638   -2.6158 N.pl3     1 <0>        -0.7372
      8 C6          0.1889   -1.7895   -3.7429 C.2       1 <0>         0.6904
      9 N3         -1.0778   -1.4102   -3.6507 N.2       1 <0>        -0.7064
     10 C7         -1.6341   -0.9384   -2.5228 C.2       1 <0>         0.5305
     11 O1         -2.8196   -0.6795   -2.4537 O.2       1 <0>        -0.4769
     12 N4          0.7079   -2.1101   -4.9609 N.pl3     1 <0>        -0.8296
     13 S1         -2.8024   -0.7824    0.6057 S.3       1 <0>         0.1020
     14 C8         -2.8627    0.8977    1.1330 C.ar      1 <0>        -0.1118
     15 C9         -1.7800    1.7448    0.8891 C.ar      1 <0>        -0.1362
     16 C10        -1.8264    3.0573    1.3007 C.ar      1 <0>        -0.0555
     17 C11        -2.9575    3.5420    1.9628 C.ar      1 <0>        -0.1551
     18 C12        -4.0407    2.6935    2.2066 C.ar      1 <0>        -0.0739
     19 C13        -3.9953    1.3828    1.7894 C.ar      1 <0>        -0.1396
     20 C14        -3.0078    4.9507    2.4054 C.2       1 <0>         0.5618
     21 O2         -2.0651    5.6884    2.1936 O.2       1 <0>        -0.5691
     22 N5         -4.0989    5.4178    3.0440 N.am      1 <0>        -0.6849
     23 C15        -4.1488    6.8147    3.4829 C.3       1 <0>         0.0746
     24 C16        -5.6075    7.2638    3.5898 C.3       1 <0>        -0.0779
     25 C17        -6.2476    7.2530    2.2002 C.3       1 <0>        -0.1788
     26 C18        -7.6844    7.6954    2.3055 C.2       1 <0>         0.4928
     27 O3         -8.1529    7.9919    3.3914 O.co2     1 <0>        -0.7007
     28 O4         -8.3782    7.7569    1.3049 O.co2     1 <0>        -0.7219
     29 C19        -3.4839    6.9423    4.8292 C.2       1 <0>         0.4957
     30 O5         -3.0121    5.9577    5.3719 O.co2     1 <0>        -0.6939
     31 O6         -3.4178    8.0301    5.3758 O.co2     1 <0>        -0.7093
     32 H1          1.1516   -1.6903    2.5102 H         1 <0>         0.0515
     33 H2          0.2518   -0.1551    2.4675 H         1 <0>         0.0714
     34 H3         -0.6065   -1.6812    2.7878 H         1 <0>         0.0713
     35 H4         -0.1840    0.1983   -1.4320 H         1 <0>         0.0511
     36 H5         -0.3754   -2.8769   -1.4661 H         1 <0>         0.0424
     37 H6          1.6342   -2.3882   -5.0355 H         1 <0>         0.4026
     38 H7          1.9616   -1.8390   -2.6480 H         1 <0>         0.3932
     39 H8         -0.9058    1.3700    0.3776 H         1 <0>         0.1194
     40 H9         -0.9887    3.7124    1.1123 H         1 <0>         0.1158
     41 H10        -4.9151    3.0674    2.7186 H         1 <0>         0.1149
     42 H11        -4.8342    0.7281    1.9738 H         1 <0>         0.1138
     43 H12        -4.8511    4.8292    3.2131 H         1 <0>         0.3885
     44 H13        -3.6277    7.4416    2.7594 H         1 <0>         0.0738
     45 H14        -6.1503    6.5827    4.2452 H         1 <0>         0.0535
     46 H15        -5.6478    8.2727    4.0006 H         1 <0>         0.0747
     47 H16        -5.7048    7.9342    1.5448 H         1 <0>         0.0510
     48 H17        -6.2073    6.2442    1.7894 H         1 <0>         0.0539
     49 H18         0.1511   -2.0603   -5.7537 H         1 <0>         0.4182
@<TRIPOS>BOND
     1    1    2 1
     2    1   32 1
     3    1   33 1
     4    1   34 1
     5    2    6 2
     6    2    3 1
     7    3   13 1
     8    3    4 1
     9    4   10 1
    10    4    5 1
    11    4   35 1
    12    5    6 1
    13    5   36 1
    14    5    7 1
    15    7   38 1
    16    7    8 1
    17    8   12 1
    18    8    9 2
    19    9   10 1
    20   10   11 2
    21   12   37 1
    22   12   49 1
    23   13   14 1
    24   14   19 ar
    25   14   15 ar
    26   15   16 ar
    27   15   39 1
    28   16   17 ar
    29   16   40 1
    30   17   18 ar
    31   17   20 1
    32   18   19 ar
    33   18   41 1
    34   19   42 1
    35   20   21 2
    36   20   22 am
    37   22   23 1
    38   22   43 1
    39   23   24 1
    40   23   29 1
    41   23   44 1
    42   24   25 1
    43   24   45 1
    44   24   46 1
    45   25   26 1
    46   25   47 1
    47   25   48 1
    48   26   27 2
    49   26   28 1
    50   29   30 2
    51   29   31 1
@<TRIPOS>MOLECULE
CHEMBL336487__16
   49    51     0     0     0
SMALL
NO_CHARGES

@<TRIPOS>ATOM
      1 C1          0.1039    1.4460   -0.2097 C.3       1 <0>        -0.1064
      2 C2          0.0852   -0.0586   -0.1253 C.2       1 <0>         0.1826
      3 C3          0.1575   -0.8662    1.1747 C.3       1 <0>        -0.1011
      4 C4         -0.5450   -2.1607    0.7447 C.3       1 <0>        -0.1913
      5 C5          0.0576   -2.2204   -0.6949 C.3       1 <0>         0.2810
      6 N1         -0.0001   -0.8599   -1.1432 N.2       1 <0>        -0.4603
      7 N2         -0.5761   -3.3337   -1.3537 N.pl3     1 <0>        -0.6976
      8 C6         -0.4295   -4.5299   -0.6680 C.2       1 <0>         0.5678
      9 N3         -0.1458   -4.5382    0.6266 N.2       1 <0>        -0.5295
     10 C7         -0.1221   -3.4370    1.3942 C.2       1 <0>         0.4964
     11 O1          0.2261   -3.4769    2.5580 O.2       1 <0>        -0.3927
     12 N4         -0.5793   -5.7098   -1.3323 N.2       1 <0>        -0.4524
     13 S1          1.8780   -1.1827    1.6546 S.3       1 <0>        -0.0177
     14 C8          2.4445    0.3720    2.2602 C.ar      1 <0>        -0.0482
     15 C9          1.5452    1.4226    2.4269 C.ar      1 <0>        -0.1444
     16 C10         1.9830    2.6332    2.8983 C.ar      1 <0>        -0.0166
     17 C11         3.3338    2.8127    3.2119 C.ar      1 <0>        -0.1588
     18 C12         4.2343    1.7563    3.0434 C.ar      1 <0>        -0.0534
     19 C13         3.7899    0.5464    2.5767 C.ar      1 <0>        -0.1015
     20 C14         3.8080    4.1140    3.7187 C.2       1 <0>         0.5558
     21 O2          3.0240    5.0321    3.8643 O.2       1 <0>        -0.4571
     22 N5          5.1103    4.2857    4.0205 N.am      1 <0>        -0.5912
     23 C15         5.5813    5.5783    4.5240 C.3       1 <0>         0.1805
     24 C16         6.8530    5.3715    5.3492 C.3       1 <0>        -0.1175
     25 C17         6.5238    4.5473    6.5955 C.3       1 <0>        -0.1064
     26 C18         7.7764    4.3436    7.4083 C.2       1 <0>         0.5082
     27 O3          8.8343    4.8141    7.0262 O.co2     1 <0>        -0.5019
     28 O4          7.7318    3.7083    8.4480 O.co2     1 <0>        -0.4824
     29 C19         5.8790    6.4915    3.3627 C.2       1 <0>         0.5250
     30 O5          5.7131    6.0989    2.2204 O.co2     1 <0>        -0.3834
     31 O6          6.2857    7.6228    3.5655 O.co2     1 <0>        -0.3692
     32 H1          1.1359    1.7966   -0.2179 H         1 <0>         0.0962
     33 H2         -0.3881   -0.3700    1.9773 H         1 <0>         0.1343
     34 H3         -0.3955    1.7648   -1.1246 H         1 <0>         0.0980
     35 H4         -1.6295   -2.0508    0.7435 H         1 <0>         0.1453
     36 H5          1.1116   -2.4717   -0.5762 H         1 <0>         0.0931
     37 H6         -0.4153    1.8647    0.6524 H         1 <0>         0.0913
     38 H7         -0.4780   -6.5497   -0.8578 H         1 <0>         0.3828
     39 H8          0.5020    1.2835    2.1843 H         1 <0>         0.1406
     40 H9          1.2853    3.4475    3.0271 H         1 <0>         0.1494
     41 H10         5.2782    1.8922    3.2848 H         1 <0>         0.1356
     42 H11         4.4841   -0.2713    2.4507 H         1 <0>         0.1443
     43 H12         5.7357    3.5534    3.9043 H         1 <0>         0.4320
     44 H13         4.8105    6.0269    5.1506 H         1 <0>         0.2050
     45 H14         7.5936    4.8428    4.7491 H         1 <0>         0.1233
     46 H15         7.2529    6.3401    5.6493 H         1 <0>         0.1456
     47 H16         5.7832    5.0760    7.1956 H         1 <0>         0.1257
     48 H17         6.1239    3.5787    6.2953 H         1 <0>         0.1138
     49 H18        -1.0568   -3.2545   -2.1925 H         1 <0>         0.4275
@<TRIPOS>BOND
     1    1    2 1
     2    1   32 1
     3    1   34 1
     4    1   37 1
     5    2    3 1
     6    2    6 2
     7    3    4 1
     8    3   13 1
     9    3   33 1
    10    4   10 1
    11    4    5 1
    12    4   35 1
    13    5    7 1
    14    5   36 1
    15    5    6 1
    16    7    8 1
    17    7   49 1
    18    8    9 2
    19    8   12 1
    20    9   10 1
    21   10   11 2
    22   12   38 1
    23   13   14 1
    24   14   19 ar
    25   14   15 ar
    26   15   16 ar
    27   15   39 1
    28   16   17 ar
    29   16   40 1
    30   17   18 ar
    31   17   20 1
    32   18   19 ar
    33   18   41 1
    34   19   42 1
    35   20   21 2
    36   20   22 am
    37   22   23 1
    38   22   43 1
    39   23   24 1
    40   23   29 1
    41   23   44 1
    42   24   25 1
    43   24   45 1
    44   24   46 1
    45   25   26 1
    46   25   47 1
    47   25   48 1
    48   26   27 2
    49   26   28 1
    50   29   30 2
    51   29   31 1
@<TRIPOS>MOLECULE
CHEMBL336487__17
   50    52     0     0     0
SMALL
NO_CHARGES

@<TRIPOS>ATOM
      1 C1          0.1039    1.4460   -0.2097 C.3       1 <0>        -0.1059
      2 C2          0.0852   -0.0586   -0.1253 C.2       1 <0>         0.1810
      3 C3          0.1575   -0.8662    1.1747 C.3       1 <0>        -0.1014
      4 C4         -0.5450   -2.1607    0.7447 C.3       1 <0>        -0.1940
      5 C5          0.0576   -2.2204   -0.6949 C.3       1 <0>         0.2828
      6 N1         -0.0001   -0.8599   -1.1432 N.2       1 <0>        -0.4670
      7 N2         -0.5761   -3.3337   -1.3537 N.pl3     1 <0>        -0.7338
      8 C6         -0.4295   -4.5299   -0.6680 C.2       1 <0>         0.7103
      9 N3         -0.1458   -4.5382    0.6266 N.2       1 <0>        -0.6823
     10 C7         -0.1221   -3.4370    1.3942 C.2       1 <0>         0.5386
     11 O1          0.2261   -3.4769    2.5580 O.2       1 <0>        -0.4601
     12 N4         -0.5793   -5.7098   -1.3323 N.pl3     1 <0>        -0.8026
     13 S1          1.8780   -1.1827    1.6546 S.3       1 <0>        -0.0086
     14 C8          2.4445    0.3720    2.2602 C.ar      1 <0>        -0.0480
     15 C9          1.5452    1.4226    2.4269 C.ar      1 <0>        -0.1466
     16 C10         1.9830    2.6332    2.8983 C.ar      1 <0>        -0.0157
     17 C11         3.3338    2.8127    3.2119 C.ar      1 <0>        -0.1638
     18 C12         4.2343    1.7563    3.0434 C.ar      1 <0>        -0.0524
     19 C13         3.7899    0.5464    2.5767 C.ar      1 <0>        -0.1035
     20 C14         3.8080    4.1140    3.7187 C.2       1 <0>         0.5522
     21 O2          3.0240    5.0321    3.8643 O.2       1 <0>        -0.4579
     22 N5          5.1103    4.2857    4.0205 N.am      1 <0>        -0.5862
     23 C15         5.5813    5.5783    4.5240 C.3       1 <0>         0.1793
     24 C16         6.8530    5.3715    5.3492 C.3       1 <0>        -0.1171
     25 C17         6.5238    4.5473    6.5955 C.3       1 <0>        -0.1057
     26 C18         7.7764    4.3436    7.4083 C.2       1 <0>         0.5082
     27 O3          8.8343    4.8141    7.0262 O.co2     1 <0>        -0.5062
     28 O4          7.7318    3.7083    8.4480 O.co2     1 <0>        -0.4848
     29 C19         5.8790    6.4915    3.3627 C.2       1 <0>         0.5254
     30 O5          5.7500    7.6975    3.4869 O.co2     1 <0>        -0.3696
     31 O6          6.2488    6.0243    2.2990 O.co2     1 <0>        -0.3805
     32 H1          1.1359    1.7966   -0.2179 H         1 <0>         0.0951
     33 H2         -0.3881   -0.3700    1.9773 H         1 <0>         0.1306
     34 H3         -0.3955    1.7648   -1.1246 H         1 <0>         0.0961
     35 H4         -1.6295   -2.0508    0.7435 H         1 <0>         0.1367
     36 H5          1.1116   -2.4717   -0.5762 H         1 <0>         0.0917
     37 H6         -0.4153    1.8647    0.6524 H         1 <0>         0.0905
     38 H7         -0.7873   -5.7099   -2.2797 H         1 <0>         0.4163
     39 H8         -0.4780   -6.5497   -0.8578 H         1 <0>         0.4323
     40 H9          0.5020    1.2835    2.1843 H         1 <0>         0.1402
     41 H10         1.2853    3.4475    3.0271 H         1 <0>         0.1486
     42 H11         5.2782    1.8922    3.2848 H         1 <0>         0.1353
     43 H12         4.4841   -0.2713    2.4507 H         1 <0>         0.1442
     44 H13         5.7357    3.5534    3.9043 H         1 <0>         0.4333
     45 H14         4.8105    6.0269    5.1506 H         1 <0>         0.2024
     46 H15         7.5936    4.8428    4.7491 H         1 <0>         0.1251
     47 H16         7.2529    6.3401    5.6493 H         1 <0>         0.1420
     48 H17         5.7832    5.0760    7.1956 H         1 <0>         0.1259
     49 H18         6.1239    3.5787    6.2953 H         1 <0>         0.1130
     50 H19        -1.0568   -3.2545   -2.1925 H         1 <0>         0.4164
@<TRIPOS>BOND
     1    1    2 1
     2    1   32 1
     3    1   34 1
     4    1   37 1
     5    2    3 1
     6    2    6 2
     7    3    4 1
     8    3   13 1
     9    3   33 1
    10    4   10 1
    11    4    5 1
    12    4   35 1
    13    5    7 1
    14    5   36 1
    15    5    6 1
    16    7    8 1
    17    7   50 1
    18    8    9 2
    19    8   12 1
    20    9   10 1
    21   10   11 2
    22   12   38 1
    23   12   39 1
    24   13   14 1
    25   14   19 ar
    26   14   15 ar
    27   15   16 ar
    28   15   40 1
    29   16   17 ar
    30   16   41 1
    31   17   18 ar
    32   17   20 1
    33   18   19 ar
    34   18   42 1
    35   19   43 1
    36   20   21 2
    37   20   22 am
    38   22   23 1
    39   22   44 1
    40   23   24 1
    41   23   29 1
    42   23   45 1
    43   24   25 1
    44   24   46 1
    45   24   47 1
    46   25   26 1
    47   25   48 1
    48   25   49 1
    49   26   27 2
    50   26   28 1
    51   29   30 2
    52   29   31 1
@<TRIPOS>MOLECULE
CHEMBL336487__18
   49    51     0     0     0
SMALL
USER_CHARGES

@<TRIPOS>ATOM
      1 C1          0.0310   -1.0835    2.3271 C.3       1 <0>        -0.0912
      2 C2         -0.0785   -1.3182    0.8425 C.2       1 <0>         0.2731
      3 C3         -1.2503   -0.9504    0.0246 C.2       1 <0>        -0.5956
      4 C4         -0.6734   -0.8589   -1.3827 C.3       1 <0>        -0.0787
      5 C5          0.4197   -1.9526   -1.2956 C.3       1 <0>         0.3081
      6 N1          0.8447   -1.8632    0.1191 N.2       1 <0>        -0.6610
      7 N2         -0.2127   -3.2656   -1.4826 N.pl3     1 <0>        -0.7286
      8 C6         -1.1440   -3.4463   -2.4569 C.2       1 <0>         0.6835
      9 N3         -1.8757   -2.4283   -2.8788 N.2       1 <0>        -0.6900
     10 C7         -1.7008   -1.2041   -2.4084 C.2       1 <0>         0.5367
     11 O1         -2.4132   -0.3156   -2.8332 O.2       1 <0>        -0.5211
     12 N4         -1.3240   -4.6820   -3.0015 N.pl3     1 <0>        -0.8347
     13 S1         -2.8151   -0.6973    0.5175 S.3       1 <0>         0.0782
     14 C8         -2.8635    1.0176    0.9192 C.ar      1 <0>        -0.1100
     15 C9         -1.7538    1.8255    0.6642 C.ar      1 <0>        -0.1301
     16 C10        -1.7909    3.1651    0.9777 C.ar      1 <0>        -0.0553
     17 C11        -2.9396    3.7165    1.5512 C.ar      1 <0>        -0.1531
     18 C12        -4.0500    2.9074    1.8061 C.ar      1 <0>        -0.0744
     19 C13        -4.0136    1.5691    1.4869 C.ar      1 <0>        -0.1371
     20 C14        -2.9800    5.1545    1.8884 C.2       1 <0>         0.5545
     21 O2         -2.0137    5.8581    1.6669 O.2       1 <0>        -0.5659
     22 N5         -4.0881    5.6860    2.4415 N.am      1 <0>        -0.6842
     23 C15        -4.1282    7.1118    2.7759 C.3       1 <0>         0.0757
     24 C16        -5.1449    7.3448    3.8953 C.3       1 <0>        -0.0802
     25 C17        -4.6702    6.6434    5.1695 C.3       1 <0>        -0.1776
     26 C18        -5.6716    6.8729    6.2720 C.2       1 <0>         0.4930
     27 O3         -6.6722    7.5359    6.0584 O.co2     1 <0>        -0.7006
     28 O4         -5.4811    6.3955    7.3776 O.co2     1 <0>        -0.7219
     29 C19        -4.5320    7.9022    1.5580 C.2       1 <0>         0.4984
     30 O5         -5.2629    7.4010    0.7207 O.co2     1 <0>        -0.6968
     31 O6         -4.1278    9.0429    1.4100 O.co2     1 <0>        -0.7092
     32 H1          0.9607   -1.5168    2.6959 H         1 <0>         0.0513
     33 H2          0.0251   -0.0120    2.5269 H         1 <0>         0.0691
     34 H3         -0.8137   -1.5520    2.8322 H         1 <0>         0.0693
     35 H4         -0.2475    0.1266   -1.5714 H         1 <0>         0.0593
     36 H5          1.2423   -1.7760   -1.9886 H         1 <0>         0.0739
     37 H6         -0.7886   -5.4302   -2.6942 H         1 <0>         0.4004
     38 H7          0.0356   -4.0071   -0.9086 H         1 <0>         0.3894
     39 H8         -0.8659    1.3990    0.2213 H         1 <0>         0.1218
     40 H9         -0.9322    3.7898    0.7808 H         1 <0>         0.1181
     41 H10        -4.9380    3.3329    2.2496 H         1 <0>         0.1167
     42 H11        -4.8732    0.9445    1.6797 H         1 <0>         0.1137
     43 H12        -4.8591    5.1246    2.6183 H         1 <0>         0.3907
     44 H13        -3.1416    7.4350    3.1081 H         1 <0>         0.0741
     45 H14        -5.2398    8.4143    4.0831 H         1 <0>         0.0683
     46 H15        -6.1124    6.9409    3.5972 H         1 <0>         0.0588
     47 H16        -4.5752    5.5739    4.9817 H         1 <0>         0.0546
     48 H17        -3.7026    7.0473    5.4676 H         1 <0>         0.0517
     49 H18        -1.9877   -4.8137   -3.6966 H         1 <0>         0.4150
@<TRIPOS>BOND
     1    1    2 1
     2    1   32 1
     3    1   33 1
     4    1   34 1
     5    2    6 2
     6    2    3 1
     7    3   13 1
     8    3    4 1
     9    4   10 1
    10    4    5 1
    11    4   35 1
    12    5    6 1
    13    5   36 1
    14    5    7 1
    15    7   38 1
    16    7    8 1
    17    8   12 1
    18    8    9 2
    19    9   10 1
    20   10   11 2
    21   12   37 1
    22   12   49 1
    23   13   14 1
    24   14   19 ar
    25   14   15 ar
    26   15   16 ar
    27   15   39 1
    28   16   17 ar
    29   16   40 1
    30   17   18 ar
    31   17   20 1
    32   18   19 ar
    33   18   41 1
    34   19   42 1
    35   20   21 2
    36   20   22 am
    37   22   23 1
    38   22   43 1
    39   23   24 1
    40   23   29 1
    41   23   44 1
    42   24   25 1
    43   24   45 1
    44   24   46 1
    45   25   26 1
    46   25   47 1
    47   25   48 1
    48   26   27 2
    49   26   28 1
    50   29   30 2
    51   29   31 1
@<TRIPOS>MOLECULE
CHEMBL336487__19
   49    51     0     0     0
SMALL
NO_CHARGES

@<TRIPOS>ATOM
      1 C1          0.2852   -2.6946   -0.6823 C.3       1 <0>        -0.1049
      2 C2          0.5701   -2.1797    0.7051 C.2       1 <0>         0.2009
      3 C3          0.1247   -0.8284    1.2329 C.3       1 <0>        -0.1127
      4 C4          1.1109   -0.5848    2.4142 C.3       1 <0>        -0.1823
      5 C5          1.3322   -2.0564    2.8452 C.3       1 <0>         0.2870
      6 N1          1.2153   -2.8230    1.6011 N.2       1 <0>        -0.4876
      7 N2          2.6581   -2.1990    3.4375 N.pl3     1 <0>        -0.6983
      8 C6          3.7367   -1.6205    2.8374 C.2       1 <0>         0.5660
      9 N3          3.5716   -0.5560    2.0701 N.2       1 <0>        -0.5240
     10 C7          2.3828   -0.0310    1.8329 C.2       1 <0>         0.4898
     11 O1          2.3136    0.9448    1.1116 O.2       1 <0>        -0.4295
     12 N4          4.9826   -2.1377    3.0281 N.2       1 <0>        -0.4489
     13 S1         -1.5873   -0.9019    1.8280 S.3       1 <0>        -0.0265
     14 C8         -1.9847    0.7759    2.1913 C.ar      1 <0>        -0.0524
     15 C9         -1.0839    1.7888    1.8705 C.ar      1 <0>        -0.1405
     16 C10        -1.3906    3.0950    2.1516 C.ar      1 <0>        -0.0153
     17 C11        -2.6091    3.4102    2.7609 C.ar      1 <0>        -0.1591
     18 C12        -3.5114    2.3913    3.0817 C.ar      1 <0>        -0.0559
     19 C13        -3.2016    1.0873    2.7935 C.ar      1 <0>        -0.1007
     20 C14        -2.9417    4.8144    3.0649 C.2       1 <0>         0.5512
     21 O2         -2.1560    5.6996    2.7858 O.2       1 <0>        -0.4541
     22 N5         -4.1165    5.1167    3.6522 N.am      1 <0>        -0.5870
     23 C15        -4.4469    6.5117    3.9542 C.3       1 <0>         0.1807
     24 C16        -5.4481    6.5598    5.1102 C.3       1 <0>        -0.1170
     25 C17        -4.7885    6.0162    6.3792 C.3       1 <0>        -0.1062
     26 C18        -5.7746    6.0637    7.5178 C.2       1 <0>         0.5082
     27 O3         -6.9006    6.4926    7.3315 O.co2     1 <0>        -0.5072
     28 O4         -5.4464    5.6732    8.6252 O.co2     1 <0>        -0.4871
     29 C19        -5.0542    7.1591    2.7364 C.2       1 <0>         0.5247
     30 O5         -5.6919    6.4878    1.9432 O.co2     1 <0>        -0.3769
     31 O6         -4.9079    8.3542    2.5444 O.co2     1 <0>        -0.3655
     32 H1          1.0454   -2.3246   -1.3703 H         1 <0>         0.0956
     33 H2          0.2375   -0.0585    0.4696 H         1 <0>         0.1377
     34 H3          0.3007   -3.7844   -0.6756 H         1 <0>         0.0938
     35 H4          0.6946    0.0465    3.1992 H         1 <0>         0.1447
     36 H5          0.5656   -2.3614    3.5576 H         1 <0>         0.1443
     37 H6         -0.6964   -2.3471   -1.0043 H         1 <0>         0.0924
     38 H7          5.7495   -1.7254    2.6006 H         1 <0>         0.3805
     39 H8         -0.1428    1.5448    1.4003 H         1 <0>         0.1448
     40 H9         -0.6916    3.8799    1.9030 H         1 <0>         0.1485
     41 H10        -4.4533    2.6318    3.5524 H         1 <0>         0.1365
     42 H11        -3.9001    0.3004    3.0370 H         1 <0>         0.1460
     43 H12        -4.7433    4.4107    3.8749 H         1 <0>         0.4333
     44 H13        -3.5403    7.0469    4.2363 H         1 <0>         0.2029
     45 H14        -5.7616    7.5904    5.2766 H         1 <0>         0.1424
     46 H15        -6.3177    5.9509    4.8633 H         1 <0>         0.1255
     47 H16        -4.4749    4.9856    6.2128 H         1 <0>         0.1121
     48 H17        -3.9188    6.6252    6.6261 H         1 <0>         0.1254
     49 H18         2.7718   -2.7050    4.2572 H         1 <0>         0.4248
@<TRIPOS>BOND
     1    1    2 1
     2    1   32 1
     3    1   34 1
     4    1   37 1
     5    2    3 1
     6    2    6 2
     7    3    4 1
     8    3   13 1
     9    3   33 1
    10    4   10 1
    11    4    5 1
    12    4   35 1
    13    5    7 1
    14    5   36 1
    15    5    6 1
    16    7    8 1
    17    7   49 1
    18    8    9 2
    19    8   12 1
    20    9   10 1
    21   10   11 2
    22   12   38 1
    23   13   14 1
    24   14   19 ar
    25   14   15 ar
    26   15   16 ar
    27   15   39 1
    28   16   17 ar
    29   16   40 1
    30   17   18 ar
    31   17   20 1
    32   18   19 ar
    33   18   41 1
    34   19   42 1
    35   20   21 2
    36   20   22 am
    37   22   23 1
    38   22   43 1
    39   23   24 1
    40   23   29 1
    41   23   44 1
    42   24   25 1
    43   24   45 1
    44   24   46 1
    45   25   26 1
    46   25   47 1
    47   25   48 1
    48   26   27 2
    49   26   28 1
    50   29   30 2
    51   29   31 1
@<TRIPOS>MOLECULE
CHEMBL336487__20
   50    52     0     0     0
SMALL
NO_CHARGES

@<TRIPOS>ATOM
      1 C1          0.2852   -2.6946   -0.6823 C.3       1 <0>        -0.1046
      2 C2          0.5701   -2.1797    0.7051 C.2       1 <0>         0.2053
      3 C3          0.1247   -0.8284    1.2329 C.3       1 <0>        -0.1094
      4 C4          1.1109   -0.5848    2.4142 C.3       1 <0>        -0.1872
      5 C5          1.3322   -2.0564    2.8452 C.3       1 <0>         0.2910
      6 N1          1.2153   -2.8230    1.6011 N.2       1 <0>        -0.4933
      7 N2          2.6581   -2.1990    3.4375 N.pl3     1 <0>        -0.7329
      8 C6          3.7367   -1.6205    2.8374 C.2       1 <0>         0.7099
      9 N3          3.5716   -0.5560    2.0701 N.2       1 <0>        -0.6740
     10 C7          2.3828   -0.0310    1.8329 C.2       1 <0>         0.5319
     11 O1          2.3136    0.9448    1.1116 O.2       1 <0>        -0.4995
     12 N4          4.9826   -2.1377    3.0281 N.pl3     1 <0>        -0.8046
     13 S1         -1.5873   -0.9019    1.8280 S.3       1 <0>        -0.0375
     14 C8         -1.9847    0.7759    2.1913 C.ar      1 <0>        -0.0498
     15 C9         -1.0839    1.7888    1.8705 C.ar      1 <0>        -0.1389
     16 C10        -1.3906    3.0950    2.1516 C.ar      1 <0>        -0.0149
     17 C11        -2.6091    3.4102    2.7609 C.ar      1 <0>        -0.1593
     18 C12        -3.5114    2.3913    3.0817 C.ar      1 <0>        -0.0571
     19 C13        -3.2016    1.0873    2.7935 C.ar      1 <0>        -0.1023
     20 C14        -2.9417    4.8144    3.0649 C.2       1 <0>         0.5533
     21 O2         -2.1560    5.6996    2.7858 O.2       1 <0>        -0.4546
     22 N5         -4.1165    5.1167    3.6522 N.am      1 <0>        -0.5861
     23 C15        -4.4469    6.5117    3.9542 C.3       1 <0>         0.1808
     24 C16        -5.4481    6.5598    5.1102 C.3       1 <0>        -0.1165
     25 C17        -4.7885    6.0162    6.3792 C.3       1 <0>        -0.1082
     26 C18        -5.7746    6.0637    7.5178 C.2       1 <0>         0.5084
     27 O3         -6.9006    6.4926    7.3315 O.co2     1 <0>        -0.5093
     28 O4         -5.4464    5.6732    8.6252 O.co2     1 <0>        -0.4901
     29 C19        -5.0542    7.1591    2.7364 C.2       1 <0>         0.5259
     30 O5         -5.3662    6.4772    1.7751 O.co2     1 <0>        -0.3787
     31 O6         -5.2336    8.3648    2.7125 O.co2     1 <0>        -0.3652
     32 H1          1.0454   -2.3246   -1.3703 H         1 <0>         0.0958
     33 H2          0.2375   -0.0585    0.4696 H         1 <0>         0.1369
     34 H3          0.3007   -3.7844   -0.6756 H         1 <0>         0.0918
     35 H4          0.6946    0.0465    3.1992 H         1 <0>         0.1361
     36 H5          0.5656   -2.3614    3.5576 H         1 <0>         0.1370
     37 H6         -0.6964   -2.3471   -1.0043 H         1 <0>         0.0912
     38 H7          5.1027   -2.9182    3.5913 H         1 <0>         0.4158
     39 H8          5.7495   -1.7254    2.6006 H         1 <0>         0.4300
     40 H9         -0.1428    1.5448    1.4003 H         1 <0>         0.1478
     41 H10        -0.6916    3.8799    1.9030 H         1 <0>         0.1483
     42 H11        -4.4533    2.6318    3.5524 H         1 <0>         0.1353
     43 H12        -3.9001    0.3004    3.0370 H         1 <0>         0.1448
     44 H13        -4.7433    4.4107    3.8749 H         1 <0>         0.4327
     45 H14        -3.5403    7.0469    4.2363 H         1 <0>         0.2059
     46 H15        -5.7616    7.5904    5.2766 H         1 <0>         0.1445
     47 H16        -6.3177    5.9509    4.8633 H         1 <0>         0.1239
     48 H17        -4.4749    4.9856    6.2128 H         1 <0>         0.1119
     49 H18        -3.9188    6.6252    6.6261 H         1 <0>         0.1244
     50 H19         2.7718   -2.7050    4.2572 H         1 <0>         0.4137
@<TRIPOS>BOND
     1    1    2 1
     2    1   32 1
     3    1   34 1
     4    1   37 1
     5    2    3 1
     6    2    6 2
     7    3    4 1
     8    3   13 1
     9    3   33 1
    10    4   10 1
    11    4    5 1
    12    4   35 1
    13    5    7 1
    14    5   36 1
    15    5    6 1
    16    7    8 1
    17    7   50 1
    18    8    9 2
    19    8   12 1
    20    9   10 1
    21   10   11 2
    22   12   38 1
    23   12   39 1
    24   13   14 1
    25   14   19 ar
    26   14   15 ar
    27   15   16 ar
    28   15   40 1
    29   16   17 ar
    30   16   41 1
    31   17   18 ar
    32   17   20 1
    33   18   19 ar
    34   18   42 1
    35   19   43 1
    36   20   21 2
    37   20   22 am
    38   22   23 1
    39   22   44 1
    40   23   24 1
    41   23   29 1
    42   23   45 1
    43   24   25 1
    44   24   46 1
    45   24   47 1
    46   25   26 1
    47   25   48 1
    48   25   49 1
    49   26   27 2
    50   26   28 1
    51   29   30 2
    52   29   31 1
@<TRIPOS>MOLECULE
CHEMBL336487__21
   49    51     0     0     0
SMALL
USER_CHARGES

@<TRIPOS>ATOM
      1 C1          0.0310   -1.0835    2.3271 C.3       1 <0>        -0.0914
      2 C2         -0.0785   -1.3182    0.8425 C.2       1 <0>         0.2733
      3 C3         -1.2503   -0.9504    0.0246 C.2       1 <0>        -0.5955
      4 C4         -0.6734   -0.8589   -1.3827 C.3       1 <0>        -0.0783
      5 C5          0.4197   -1.9526   -1.2956 C.3       1 <0>         0.3080
      6 N1          0.8447   -1.8632    0.1191 N.2       1 <0>        -0.6613
      7 N2         -0.2127   -3.2656   -1.4826 N.pl3     1 <0>        -0.7286
      8 C6         -1.1440   -3.4463   -2.4569 C.2       1 <0>         0.6835
      9 N3         -1.8757   -2.4283   -2.8788 N.2       1 <0>        -0.6900
     10 C7         -1.7008   -1.2041   -2.4084 C.2       1 <0>         0.5368
     11 O1         -2.4132   -0.3156   -2.8332 O.2       1 <0>        -0.5214
     12 N4         -1.3240   -4.6820   -3.0015 N.pl3     1 <0>        -0.8348
     13 S1         -2.8151   -0.6973    0.5175 S.3       1 <0>         0.0771
     14 C8         -2.8635    1.0176    0.9192 C.ar      1 <0>        -0.1107
     15 C9         -1.7538    1.8255    0.6642 C.ar      1 <0>        -0.1298
     16 C10        -1.7909    3.1651    0.9777 C.ar      1 <0>        -0.0556
     17 C11        -2.9396    3.7165    1.5512 C.ar      1 <0>        -0.1504
     18 C12        -4.0500    2.9074    1.8061 C.ar      1 <0>        -0.0754
     19 C13        -4.0136    1.5691    1.4869 C.ar      1 <0>        -0.1372
     20 C14        -2.9800    5.1545    1.8884 C.2       1 <0>         0.5614
     21 O2         -2.0137    5.8581    1.6669 O.2       1 <0>        -0.5675
     22 N5         -4.0881    5.6860    2.4415 N.am      1 <0>        -0.6846
     23 C15        -4.1282    7.1118    2.7759 C.3       1 <0>         0.0744
     24 C16        -5.5805    7.5932    2.7839 C.3       1 <0>        -0.0778
     25 C17        -6.1590    7.4924    1.3711 C.3       1 <0>        -0.1789
     26 C18        -7.5894    7.9665    1.3790 C.2       1 <0>         0.4928
     27 O3         -8.0990    8.3495    2.4183 O.co2     1 <0>        -0.7008
     28 O4         -8.2372    7.9670    0.3461 O.co2     1 <0>        -0.7217
     29 C19        -3.5206    7.3255    4.1383 C.2       1 <0>         0.4958
     30 O5         -3.0937    6.3750    4.7714 O.co2     1 <0>        -0.6941
     31 O6         -3.4560    8.4490    4.6076 O.co2     1 <0>        -0.7091
     32 H1          0.9607   -1.5168    2.6959 H         1 <0>         0.0512
     33 H2          0.0251   -0.0120    2.5269 H         1 <0>         0.0697
     34 H3         -0.8137   -1.5520    2.8322 H         1 <0>         0.0691
     35 H4         -0.2475    0.1266   -1.5714 H         1 <0>         0.0591
     36 H5          1.2423   -1.7760   -1.9886 H         1 <0>         0.0738
     37 H6         -0.7886   -5.4302   -2.6942 H         1 <0>         0.4004
     38 H7          0.0356   -4.0071   -0.9086 H         1 <0>         0.3894
     39 H8         -0.8659    1.3990    0.2213 H         1 <0>         0.1215
     40 H9         -0.9322    3.7898    0.7808 H         1 <0>         0.1179
     41 H10        -4.9380    3.3329    2.2496 H         1 <0>         0.1157
     42 H11        -4.8732    0.9445    1.6797 H         1 <0>         0.1132
     43 H12        -4.8591    5.1246    2.6183 H         1 <0>         0.3884
     44 H13        -3.5628    7.6751    2.0335 H         1 <0>         0.0742
     45 H14        -6.1656    6.9713    3.4614 H         1 <0>         0.0534
     46 H15        -5.6178    8.6298    3.1187 H         1 <0>         0.0749
     47 H16        -5.5738    8.1142    0.6936 H         1 <0>         0.0513
     48 H17        -6.1216    6.4557    1.0363 H         1 <0>         0.0538
     49 H18        -1.9877   -4.8137   -3.6966 H         1 <0>         0.4150
@<TRIPOS>BOND
     1    1    2 1
     2    1   32 1
     3    1   33 1
     4    1   34 1
     5    2    6 2
     6    2    3 1
     7    3   13 1
     8    3    4 1
     9    4   10 1
    10    4    5 1
    11    4   35 1
    12    5    6 1
    13    5   36 1
    14    5    7 1
    15    7   38 1
    16    7    8 1
    17    8   12 1
    18    8    9 2
    19    9   10 1
    20   10   11 2
    21   12   37 1
    22   12   49 1
    23   13   14 1
    24   14   19 ar
    25   14   15 ar
    26   15   16 ar
    27   15   39 1
    28   16   17 ar
    29   16   40 1
    30   17   18 ar
    31   17   20 1
    32   18   19 ar
    33   18   41 1
    34   19   42 1
    35   20   21 2
    36   20   22 am
    37   22   23 1
    38   22   43 1
    39   23   24 1
    40   23   29 1
    41   23   44 1
    42   24   25 1
    43   24   45 1
    44   24   46 1
    45   25   26 1
    46   25   47 1
    47   25   48 1
    48   26   27 2
    49   26   28 1
    50   29   30 2
    51   29   31 1
@<TRIPOS>MOLECULE
CHEMBL336487__22
   49    51     0     0     0
SMALL
NO_CHARGES

@<TRIPOS>ATOM
      1 C1          1.9124   -2.1450    0.1180 C.3       1 <0>        -0.1224
      2 C2          0.5445   -2.2156    0.7464 C.2       1 <0>         0.1791
      3 C3         -0.0839   -1.1091    1.5733 C.3       1 <0>        -0.2525
      4 C4         -1.1593   -1.8746    2.4010 C.3       1 <0>        -0.1539
      5 C5         -1.5026   -2.9835    1.3750 C.3       1 <0>         0.2987
      6 N1         -0.2483   -3.2133    0.6518 N.2       1 <0>        -0.4488
      7 N2         -1.9401   -4.1840    2.0797 N.pl3     1 <0>        -0.7153
      8 C6         -1.2500   -4.6216    3.1708 C.2       1 <0>         0.5379
      9 N3         -0.5497   -3.7643    3.8948 N.2       1 <0>        -0.4348
     10 C7         -0.4657   -2.4818    3.5895 C.2       1 <0>         0.3776
     11 O1          0.2030   -1.7590    4.3020 O.2       1 <0>        -0.2834
     12 N4         -1.2819   -5.9393    3.5152 N.2       1 <0>        -0.5648
     13 S1          1.1456   -0.3442    2.6660 S.3       1 <0>         0.7347
     14 C8          0.3020    1.0421    3.3523 C.ar      1 <0>        -0.2683
     15 C9         -0.9780    1.3665    2.9086 C.ar      1 <0>        -0.0633
     16 C10        -1.6369    2.4442    3.4411 C.ar      1 <0>        -0.0571
     17 C11        -1.0229    3.2183    4.4306 C.ar      1 <0>        -0.0121
     18 C12         0.2621    2.8903    4.8741 C.ar      1 <0>        -0.0875
     19 C13         0.9141    1.8083    4.3417 C.ar      1 <0>        -0.0064
     20 C14        -1.7290    4.3787    5.0051 C.2       1 <0>         0.5410
     21 O2         -2.8462    4.6631    4.6183 O.2       1 <0>        -0.4902
     22 N5         -1.1360    5.1238    5.9588 N.am      1 <0>        -0.6597
     23 C15        -1.8374    6.2765    6.5295 C.3       1 <0>         0.1301
     24 C16        -1.2963    6.5594    7.9323 C.3       1 <0>        -0.1061
     25 C17        -1.6306    5.3851    8.8543 C.3       1 <0>        -0.1295
     26 C18        -1.0976    5.6638   10.2361 C.2       1 <0>         0.4933
     27 O3         -0.5053    6.7051   10.4625 O.co2     1 <0>        -0.5578
     28 O4         -1.2587    4.8479   11.1277 O.co2     1 <0>        -0.5597
     29 C19        -1.6171    7.4827    5.6534 C.2       1 <0>         0.4993
     30 O5         -0.9373    7.3883    4.6457 O.co2     1 <0>        -0.5392
     31 O6         -2.1188    8.5530    5.9522 O.co2     1 <0>        -0.5192
     32 H1          2.6637   -2.4461    0.8481 H         1 <0>         0.1035
     33 H2         -0.5496   -0.3624    0.9303 H         1 <0>         0.2001
     34 H3          1.9524   -2.8141   -0.7416 H         1 <0>         0.1133
     35 H4         -2.0104   -1.2533    2.6798 H         1 <0>         0.1737
     36 H5         -2.2814   -2.6407    0.6938 H         1 <0>         0.1601
     37 H6          2.1106   -1.1237   -0.2072 H         1 <0>         0.0976
     38 H7         -0.7904   -6.2496    4.2918 H         1 <0>         0.3712
     39 H8         -1.4516    0.7685    2.1441 H         1 <0>         0.1479
     40 H9         -2.6291    2.6954    3.0964 H         1 <0>         0.1696
     41 H10         0.7387    3.4864    5.6382 H         1 <0>         0.1636
     42 H11         1.9047    1.5518    4.6870 H         1 <0>         0.1653
     43 H12        -0.2448    4.8970    6.2673 H         1 <0>         0.4097
     44 H13        -2.9041    6.0601    6.5883 H         1 <0>         0.1397
     45 H14        -0.2149    6.6882    7.8855 H         1 <0>         0.0923
     46 H15        -1.7540    7.4688    8.3217 H         1 <0>         0.1175
     47 H16        -2.7119    5.2563    8.9012 H         1 <0>         0.0972
     48 H17        -1.1729    4.4757    8.4649 H         1 <0>         0.0859
     49 H18        -2.7213   -4.6700    1.7724 H         1 <0>         0.4317
@<TRIPOS>BOND
     1    1    2 1
     2    1   32 1
     3    1   34 1
     4    1   37 1
     5    2    3 1
     6    2    6 2
     7    3    4 1
     8    3   13 1
     9    3   33 1
    10    4   10 1
    11    4    5 1
    12    4   35 1
    13    5    7 1
    14    5   36 1
    15    5    6 1
    16    7    8 1
    17    7   49 1
    18    8    9 2
    19    8   12 1
    20    9   10 1
    21   10   11 2
    22   12   38 1
    23   13   14 1
    24   14   19 ar
    25   14   15 ar
    26   15   16 ar
    27   15   39 1
    28   16   17 ar
    29   16   40 1
    30   17   18 ar
    31   17   20 1
    32   18   19 ar
    33   18   41 1
    34   19   42 1
    35   20   21 2
    36   20   22 am
    37   22   23 1
    38   22   43 1
    39   23   24 1
    40   23   29 1
    41   23   44 1
    42   24   25 1
    43   24   45 1
    44   24   46 1
    45   25   26 1
    46   25   47 1
    47   25   48 1
    48   26   27 2
    49   26   28 1
    50   29   30 2
    51   29   31 1
@<TRIPOS>MOLECULE
CHEMBL336487__23
   50    52     0     0     0
SMALL
NO_CHARGES

@<TRIPOS>ATOM
      1 C1          1.9124   -2.1450    0.1180 C.3       1 <0>        -0.1080
      2 C2          0.5445   -2.2156    0.7464 C.2       1 <0>         0.2041
      3 C3         -0.0839   -1.1091    1.5733 C.3       1 <0>        -0.1324
      4 C4         -1.1593   -1.8746    2.4010 C.3       1 <0>        -0.1937
      5 C5         -1.5026   -2.9835    1.3750 C.3       1 <0>         0.2949
      6 N1         -0.2483   -3.2133    0.6518 N.2       1 <0>        -0.4944
      7 N2         -1.9401   -4.1840    2.0797 N.pl3     1 <0>        -0.7347
      8 C6         -1.2500   -4.6216    3.1708 C.2       1 <0>         0.7024
      9 N3         -0.5497   -3.7643    3.8948 N.2       1 <0>        -0.6675
     10 C7         -0.4657   -2.4818    3.5895 C.2       1 <0>         0.5021
     11 O1          0.2030   -1.7590    4.3020 O.2       1 <0>        -0.4531
     12 N4         -1.2819   -5.9393    3.5152 N.pl3     1 <0>        -0.8070
     13 S1          1.1456   -0.3442    2.6660 S.3       1 <0>         0.0771
     14 C8          0.3020    1.0421    3.3523 C.ar      1 <0>        -0.0398
     15 C9         -0.9780    1.3665    2.9086 C.ar      1 <0>        -0.1524
     16 C10        -1.6369    2.4442    3.4411 C.ar      1 <0>        -0.0130
     17 C11        -1.0229    3.2183    4.4306 C.ar      1 <0>        -0.1658
     18 C12         0.2621    2.8903    4.8741 C.ar      1 <0>        -0.0506
     19 C13         0.9141    1.8083    4.3417 C.ar      1 <0>        -0.1030
     20 C14        -1.7290    4.3787    5.0051 C.2       1 <0>         0.5495
     21 O2         -2.8462    4.6631    4.6183 O.2       1 <0>        -0.4670
     22 N5         -1.1360    5.1238    5.9588 N.am      1 <0>        -0.5782
     23 C15        -1.8374    6.2765    6.5295 C.3       1 <0>         0.1758
     24 C16        -1.2963    6.5594    7.9323 C.3       1 <0>        -0.1153
     25 C17        -1.6306    5.3851    8.8543 C.3       1 <0>        -0.1100
     26 C18        -1.0976    5.6638   10.2361 C.2       1 <0>         0.5077
     27 O3         -0.5053    6.7051   10.4625 O.co2     1 <0>        -0.5184
     28 O4         -1.2587    4.8479   11.1277 O.co2     1 <0>        -0.4980
     29 C19        -1.6171    7.4827    5.6534 C.2       1 <0>         0.5263
     30 O5         -2.4704    8.3510    5.5857 O.co2     1 <0>        -0.3782
     31 O6         -0.5857    7.5903    5.0122 O.co2     1 <0>        -0.3880
     32 H1          2.6637   -2.4461    0.8481 H         1 <0>         0.0964
     33 H2         -0.5496   -0.3624    0.9303 H         1 <0>         0.1366
     34 H3          1.9524   -2.8141   -0.7416 H         1 <0>         0.0929
     35 H4         -2.0104   -1.2533    2.6798 H         1 <0>         0.1361
     36 H5         -2.2814   -2.6407    0.6938 H         1 <0>         0.1334
     37 H6          2.1106   -1.1237   -0.2072 H         1 <0>         0.0922
     38 H7         -1.7960   -6.5671    2.9838 H         1 <0>         0.4145
     39 H8         -0.7904   -6.2496    4.2918 H         1 <0>         0.4294
     40 H9         -1.4516    0.7685    2.1441 H         1 <0>         0.1314
     41 H10        -2.6291    2.6954    3.0964 H         1 <0>         0.1453
     42 H11         0.7387    3.4864    5.6382 H         1 <0>         0.1350
     43 H12         1.9047    1.5518    4.6870 H         1 <0>         0.1444
     44 H13        -0.2448    4.8970    6.2673 H         1 <0>         0.4328
     45 H14        -2.9041    6.0601    6.5883 H         1 <0>         0.2006
     46 H15        -0.2149    6.6882    7.8855 H         1 <0>         0.1234
     47 H16        -1.7540    7.4688    8.3217 H         1 <0>         0.1402
     48 H17        -2.7119    5.2563    8.9012 H         1 <0>         0.1222
     49 H18        -1.1729    4.4757    8.4649 H         1 <0>         0.1097
     50 H19        -2.7213   -4.6700    1.7724 H         1 <0>         0.4125
@<TRIPOS>BOND
     1    1    2 1
     2    1   32 1
     3    1   34 1
     4    1   37 1
     5    2    3 1
     6    2    6 2
     7    3    4 1
     8    3   13 1
     9    3   33 1
    10    4   10 1
    11    4    5 1
    12    4   35 1
    13    5    7 1
    14    5   36 1
    15    5    6 1
    16    7    8 1
    17    7   50 1
    18    8    9 2
    19    8   12 1
    20    9   10 1
    21   10   11 2
    22   12   38 1
    23   12   39 1
    24   13   14 1
    25   14   19 ar
    26   14   15 ar
    27   15   16 ar
    28   15   40 1
    29   16   17 ar
    30   16   41 1
    31   17   18 ar
    32   17   20 1
    33   18   19 ar
    34   18   42 1
    35   19   43 1
    36   20   21 2
    37   20   22 am
    38   22   23 1
    39   22   44 1
    40   23   24 1
    41   23   29 1
    42   23   45 1
    43   24   25 1
    44   24   46 1
    45   24   47 1
    46   25   26 1
    47   25   48 1
    48   25   49 1
    49   26   27 2
    50   26   28 1
    51   29   30 2
    52   29   31 1
@<TRIPOS>MOLECULE
CHEMBL264373
   28    29     0     0     0
SMALL
USER_CHARGES

@<TRIPOS>ATOM
      1 C1         -0.0184    1.5028    0.0103 C.3       1 <0>        -0.1468
      2 C2          0.0021   -0.0041    0.0020 C.ar      1 <0>         0.2594
      3 C3          0.0060   -0.7032   -1.2031 C.ar      1 <0>        -0.1989
      4 C4          0.0252   -2.1095   -1.1572 C.ar      1 <0>         0.5417
      5 N1          0.0389   -2.7125    0.0260 N.ar      1 <0>        -0.5740
      6 C5          0.0345   -2.0057    1.1463 C.ar      1 <0>         0.6679
      7 N2          0.0221   -0.6804    1.1391 N.ar      1 <0>        -0.5704
      8 N3          0.0487   -2.6704    2.3595 N.pl3     1 <0>        -0.7888
      9 N4          0.0294   -2.8514   -2.3249 N.pl3     1 <0>        -0.7725
     10 C6         -0.0103    0.0157   -2.4999 C.ar      1 <0>        -0.0510
     11 C7         -1.1135    0.7899   -2.8565 C.ar      1 <0>        -0.0823
     12 C8         -1.1244    1.4571   -4.0642 C.ar      1 <0>        -0.0881
     13 C9         -0.0424    1.3587   -4.9221 C.ar      1 <0>        -0.0154
     14 C10         1.0566    0.5908   -4.5731 C.ar      1 <0>        -0.0285
     15 C11         1.0795   -0.0758   -3.3636 C.ar      1 <0>        -0.0871
     16 Cl1         2.4098    0.4722   -5.6541 Cl        1 <0>        -0.0228
     17 Cl2        -0.0630    2.1997   -6.4406 Cl        1 <0>        -0.0211
     18 H1          1.0042    1.8801    0.0026 H         1 <0>         0.1222
     19 H2         -0.5455    1.8639   -0.8728 H         1 <0>         0.1189
     20 H3         -0.5286    1.8543    0.9071 H         1 <0>         0.1047
     21 H4          0.0616   -3.6401    2.3812 H         1 <0>         0.4461
     22 H5          0.0457   -2.1668    3.1885 H         1 <0>         0.4312
     23 H6          0.0190   -2.4025   -3.1847 H         1 <0>         0.4317
     24 H7          0.0427   -3.8204   -2.2838 H         1 <0>         0.4302
     25 H8         -1.9587    0.8670   -2.1885 H         1 <0>         0.1462
     26 H9         -1.9788    2.0569   -4.3409 H         1 <0>         0.1561
     27 H10         1.9384   -0.6707   -3.0898 H         1 <0>         0.1476
     28 H11         0.0238   -0.1985    1.9810 H         1 <0>         0.4435
@<TRIPOS>BOND
     1    1    2 1
     2    1   18 1
     3    1   19 1
     4    1   20 1
     5    2    7 ar
     6    2    3 ar
     7    3    4 ar
     8    3   10 1
     9    4    5 ar
    10    4    9 1
    11    5    6 ar
    12    6    7 ar
    13    6    8 1
    14    7   28 1
    15    8   21 1
    16    8   22 1
    17    9   23 1
    18    9   24 1
    19   10   15 ar
    20   10   11 ar
    21   11   12 ar
    22   11   25 1
    23   12   13 ar
    24   12   26 1
    25   13   14 ar
    26   13   17 1
    27   14   15 ar
    28   14   16 1
    29   15   27 1
@<TRIPOS>MOLECULE
CHEMBL264373__1
   27    28     0     0     0
SMALL
USER_CHARGES

@<TRIPOS>ATOM
      1 C1         -0.0184    1.5028    0.0103 C.3       1 <0>        -0.1138
      2 C2          0.0021   -0.0041    0.0020 C.ar      1 <0>         0.2689
      3 C3          0.0060   -0.7032   -1.2031 C.ar      1 <0>        -0.2941
      4 C4          0.0252   -2.1095   -1.1572 C.ar      1 <0>         0.5009
      5 N1          0.0389   -2.7125    0.0260 N.ar      1 <0>        -0.6302
      6 C5          0.0345   -2.0057    1.1463 C.ar      1 <0>         0.6138
      7 N2          0.0221   -0.6804    1.1391 N.ar      1 <0>        -0.6041
      8 N3          0.0487   -2.6704    2.3595 N.pl3     1 <0>        -0.8173
      9 N4          0.0294   -2.8514   -2.3249 N.pl3     1 <0>        -0.8299
     10 C6         -0.0103    0.0157   -2.4999 C.ar      1 <0>         0.0067
     11 C7         -1.1135    0.7899   -2.8565 C.ar      1 <0>        -0.0942
     12 C8         -1.1244    1.4571   -4.0642 C.ar      1 <0>        -0.0922
     13 C9         -0.0424    1.3587   -4.9221 C.ar      1 <0>        -0.0351
     14 C10         1.0566    0.5908   -4.5731 C.ar      1 <0>        -0.0258
     15 C11         1.0795   -0.0758   -3.3636 C.ar      1 <0>        -0.0995
     16 Cl1         2.4098    0.4722   -5.6541 Cl        1 <0>        -0.0449
     17 Cl2        -0.0630    2.1997   -6.4406 Cl        1 <0>        -0.0461
     18 H1          1.0042    1.8801    0.0026 H         1 <0>         0.0879
     19 H2         -0.5455    1.8639   -0.8728 H         1 <0>         0.0829
     20 H3         -0.5286    1.8543    0.9071 H         1 <0>         0.0851
     21 H4          0.0616   -3.6401    2.3812 H         1 <0>         0.4147
     22 H5          0.0457   -2.1668    3.1885 H         1 <0>         0.4166
     23 H6          0.0190   -2.4025   -3.1847 H         1 <0>         0.4124
     24 H7          0.0427   -3.8204   -2.2838 H         1 <0>         0.4092
     25 H8         -1.9587    0.8670   -2.1885 H         1 <0>         0.1405
     26 H9         -1.9788    2.0569   -4.3409 H         1 <0>         0.1459
     27 H10         1.9384   -0.6707   -3.0898 H         1 <0>         0.1415
@<TRIPOS>BOND
     1    1    2 1
     2    1   18 1
     3    1   19 1
     4    1   20 1
     5    2    7 ar
     6    2    3 ar
     7    3    4 ar
     8    3   10 1
     9    4    5 ar
    10    4    9 1
    11    5    6 ar
    12    6    7 ar
    13    6    8 1
    14    8   21 1
    15    8   22 1
    16    9   23 1
    17    9   24 1
    18   10   15 ar
    19   10   11 ar
    20   11   12 ar
    21   11   25 1
    22   12   13 ar
    23   12   26 1
    24   13   14 ar
    25   13   17 1
    26   14   15 ar
    27   14   16 1
    28   15   27 1
@<TRIPOS>MOLECULE
CHEMBL595757
   47    49     0     0     0
SMALL
USER_CHARGES

@<TRIPOS>ATOM
      1 C1          0.4041    0.3073   -0.9441 C.3       1 <0>        -0.1670
      2 C2         -0.3204    0.5131    0.3877 C.3       1 <0>        -0.0842
      3 C3         -0.5275    2.0096    0.6296 C.3       1 <0>        -0.1471
      4 C4         -1.6790   -0.1891    0.3430 C.3       1 <0>        -0.0351
      5 C5         -1.4723   -1.6845    0.0943 C.3       1 <0>        -0.0673
      6 C6         -0.7917   -2.3030    1.2882 C.2       1 <0>        -0.0990
      7 C7          0.4977   -2.6546    1.3882 C.2       1 <0>         0.0160
      8 O1          0.7416   -3.1750    2.6059 O.3       1 <0>        -0.1464
      9 C8         -0.3733   -3.1875    3.3554 C.ar      1 <0>         0.3213
     10 C9         -1.4043   -2.6357    2.5768 C.ar      1 <0>        -0.2623
     11 C10        -2.6881   -2.5253    3.1292 C.ar      1 <0>         0.5792
     12 N1         -2.8786   -2.9469    4.3758 N.ar      1 <0>        -0.5776
     13 C11        -1.8786   -3.4599    5.0809 C.ar      1 <0>         0.6976
     14 N2         -0.6557   -3.5878    4.5923 N.ar      1 <0>        -0.5526
     15 N3         -2.1262   -3.8853    6.3752 N.pl3     1 <0>        -0.7835
     16 N4         -3.7312   -1.9904    2.3954 N.pl3     1 <0>        -0.7638
     17 C12        -2.5101    0.3951   -0.7701 C.ar      1 <0>        -0.1180
     18 C13        -2.1538    0.1763   -2.0870 C.ar      1 <0>        -0.0810
     19 C14        -2.9155    0.7124   -3.1086 C.ar      1 <0>        -0.1516
     20 C15        -4.0358    1.4683   -2.8155 C.ar      1 <0>        -0.0747
     21 C16        -4.3964    1.6896   -1.5006 C.ar      1 <0>        -0.2038
     22 C17        -3.6366    1.1482   -0.4736 C.ar      1 <0>         0.1284
     23 O2         -3.9925    1.3598    0.8208 O.3       1 <0>        -0.3204
     24 C18        -5.1641    2.1447    1.0515 C.3       1 <0>         0.0237
     25 H1          1.4250    0.6805   -0.8637 H         1 <0>         0.0604
     26 H2          0.4237   -0.7552   -1.1866 H         1 <0>         0.0569
     27 H3         -0.1203    0.8499   -1.7306 H         1 <0>         0.0717
     28 H4          0.2788    0.0939    1.1959 H         1 <0>         0.0696
     29 H5         -1.1788    2.4160   -0.1441 H         1 <0>         0.0591
     30 H6         -0.9867    2.1596    1.6068 H         1 <0>         0.0527
     31 H7          0.4354    2.5194    0.5986 H         1 <0>         0.0571
     32 H8         -2.1931   -0.0466    1.2936 H         1 <0>         0.0843
     33 H9         -2.4387   -2.1639   -0.0618 H         1 <0>         0.0855
     34 H10        -0.8508   -1.8231   -0.7904 H         1 <0>         0.1060
     35 H11         1.2335   -2.5379    0.6063 H         1 <0>         0.2401
     36 H12        -3.0173   -3.8054    6.7499 H         1 <0>         0.4491
     37 H13        -1.4084   -4.2632    6.9071 H         1 <0>         0.4323
     38 H14        -3.5791   -1.6861    1.4870 H         1 <0>         0.4328
     39 H15        -4.6148   -1.9194    2.7891 H         1 <0>         0.4302
     40 H16        -1.2793   -0.4137   -2.3184 H         1 <0>         0.1358
     41 H17        -2.6349    0.5409   -4.1373 H         1 <0>         0.1273
     42 H18        -4.6290    1.8863   -3.6153 H         1 <0>         0.1275
     43 H19        -5.2714    2.2800   -1.2722 H         1 <0>         0.1298
     44 H20        -5.0282    3.1361    0.6194 H         1 <0>         0.0594
     45 H21        -6.0231    1.6606    0.5869 H         1 <0>         0.0579
     46 H22        -5.3348    2.2362    2.1242 H         1 <0>         0.1013
     47 H23         0.0447   -3.9677    5.1454 H         1 <0>         0.4423
@<TRIPOS>BOND
     1    1    2 1
     2    1   25 1
     3    1   26 1
     4    1   27 1
     5    2    3 1
     6    2    4 1
     7    2   28 1
     8    3   29 1
     9    3   30 1
    10    3   31 1
    11    4    5 1
    12    4   17 1
    13    4   32 1
    14    5    6 1
    15    5   33 1
    16    5   34 1
    17    6   10 1
    18    6    7 2
    19    7    8 1
    20    7   35 1
    21    8    9 1
    22    9   14 ar
    23    9   10 ar
    24   10   11 ar
    25   11   12 ar
    26   11   16 1
    27   12   13 ar
    28   13   14 ar
    29   13   15 1
    30   14   47 1
    31   15   36 1
    32   15   37 1
    33   16   38 1
    34   16   39 1
    35   17   22 ar
    36   17   18 ar
    37   18   19 ar
    38   18   40 1
    39   19   20 ar
    40   19   41 1
    41   20   21 ar
    42   20   42 1
    43   21   22 ar
    44   21   43 1
    45   22   23 1
    46   23   24 1
    47   24   44 1
    48   24   45 1
    49   24   46 1
@<TRIPOS>MOLECULE
CHEMBL595757__1
   46    48     0     0     0
SMALL
USER_CHARGES

@<TRIPOS>ATOM
      1 C1          0.4041    0.3073   -0.9441 C.3       1 <0>        -0.1628
      2 C2         -0.3204    0.5131    0.3877 C.3       1 <0>        -0.0844
      3 C3         -0.5275    2.0096    0.6296 C.3       1 <0>        -0.1441
      4 C4         -1.6790   -0.1891    0.3430 C.3       1 <0>        -0.0357
      5 C5         -1.4723   -1.6845    0.0943 C.3       1 <0>        -0.0524
      6 C6         -0.7917   -2.3030    1.2882 C.2       1 <0>        -0.1186
      7 C7          0.4977   -2.6546    1.3882 C.2       1 <0>        -0.0223
      8 O1          0.7416   -3.1750    2.6060 O.3       1 <0>        -0.1783
      9 C8         -0.3733   -3.1875    3.3554 C.ar      1 <0>         0.3678
     10 C9         -1.4043   -2.6357    2.5768 C.ar      1 <0>        -0.3344
     11 C10        -2.6881   -2.5253    3.1292 C.ar      1 <0>         0.5349
     12 N1         -2.8786   -2.9469    4.3758 N.ar      1 <0>        -0.6320
     13 C11        -1.8786   -3.4599    5.0809 C.ar      1 <0>         0.6368
     14 N2         -0.6557   -3.5878    4.5923 N.ar      1 <0>        -0.6003
     15 N3         -2.1261   -3.8853    6.3752 N.pl3     1 <0>        -0.8139
     16 N4         -3.7312   -1.9904    2.3954 N.pl3     1 <0>        -0.8208
     17 C12        -2.5101    0.3951   -0.7701 C.ar      1 <0>        -0.1056
     18 C13        -2.1538    0.1763   -2.0870 C.ar      1 <0>        -0.0815
     19 C14        -2.9155    0.7124   -3.1086 C.ar      1 <0>        -0.1560
     20 C15        -4.0358    1.4683   -2.8155 C.ar      1 <0>        -0.0826
     21 C16        -4.3964    1.6896   -1.5006 C.ar      1 <0>        -0.2075
     22 C17        -3.6366    1.1482   -0.4736 C.ar      1 <0>         0.1291
     23 O2         -3.9925    1.3598    0.8208 O.3       1 <0>        -0.3127
     24 C18        -5.1642    2.1447    1.0515 C.3       1 <0>         0.0259
     25 H1          1.4250    0.6805   -0.8637 H         1 <0>         0.0553
     26 H2          0.4237   -0.7552   -1.1866 H         1 <0>         0.0584
     27 H3         -0.1203    0.8499   -1.7306 H         1 <0>         0.0661
     28 H4          0.2788    0.0939    1.1959 H         1 <0>         0.0749
     29 H5         -1.1788    2.4160   -0.1441 H         1 <0>         0.0544
     30 H6         -0.9867    2.1596    1.6068 H         1 <0>         0.0525
     31 H7          0.4354    2.5194    0.5986 H         1 <0>         0.0527
     32 H8         -2.1931   -0.0466    1.2936 H         1 <0>         0.0881
     33 H9         -2.4387   -2.1639   -0.0618 H         1 <0>         0.0736
     34 H10        -0.8508   -1.8231   -0.7904 H         1 <0>         0.0876
     35 H11         1.2335   -2.5379    0.6063 H         1 <0>         0.2117
     36 H12        -3.0173   -3.8054    6.7499 H         1 <0>         0.4174
     37 H13        -1.4084   -4.2632    6.9071 H         1 <0>         0.4170
     38 H14        -3.5791   -1.6861    1.4870 H         1 <0>         0.4143
     39 H15        -4.6148   -1.9194    2.7891 H         1 <0>         0.4084
     40 H16        -1.2793   -0.4137   -2.3184 H         1 <0>         0.1352
     41 H17        -2.6349    0.5409   -4.1373 H         1 <0>         0.1234
     42 H18        -4.6290    1.8863   -3.6153 H         1 <0>         0.1230
     43 H19        -5.2714    2.2800   -1.2722 H         1 <0>         0.1266
     44 H20        -5.3348    2.2362    2.1241 H         1 <0>         0.1001
     45 H21        -5.0282    3.1361    0.6194 H         1 <0>         0.0553
     46 H22        -6.0231    1.6606    0.5869 H         1 <0>         0.0554
@<TRIPOS>BOND
     1    1    2 1
     2    1   25 1
     3    1   26 1
     4    1   27 1
     5    2    3 1
     6    2    4 1
     7    2   28 1
     8    3   29 1
     9    3   30 1
    10    3   31 1
    11    4    5 1
    12    4   17 1
    13    4   32 1
    14    5    6 1
    15    5   33 1
    16    5   34 1
    17    6   10 1
    18    6    7 2
    19    7    8 1
    20    7   35 1
    21    8    9 1
    22    9   14 ar
    23    9   10 ar
    24   10   11 ar
    25   11   12 ar
    26   11   16 1
    27   12   13 ar
    28   13   14 ar
    29   13   15 1
    30   15   36 1
    31   15   37 1
    32   16   38 1
    33   16   39 1
    34   17   22 ar
    35   17   18 ar
    36   18   19 ar
    37   18   40 1
    38   19   20 ar
    39   19   41 1
    40   20   21 ar
    41   20   42 1
    42   21   22 ar
    43   21   43 1
    44   22   23 1
    45   23   24 1
    46   24   44 1
    47   24   45 1
    48   24   46 1
@<TRIPOS>MOLECULE
CHEMBL595757__2
   47    49     0     0     0
SMALL
USER_CHARGES

@<TRIPOS>ATOM
      1 C1          0.1121    1.4082   -0.1172 C.3       1 <0>        -0.1592
      2 C2          0.0326   -0.1173   -0.0306 C.3       1 <0>        -0.0886
      3 C3          0.8619   -0.6045    1.1593 C.3       1 <0>        -0.1479
      4 C4         -1.4254   -0.5423    0.1558 C.3       1 <0>        -0.0360
      5 C5         -2.2350   -0.1427   -1.0794 C.3       1 <0>        -0.0629
      6 C6         -3.6926   -0.4440   -0.8438 C.2       1 <0>        -0.0963
      7 C7         -4.3756   -1.5114   -1.2802 C.2       1 <0>         0.0188
      8 O1         -5.6569   -1.4383   -0.8726 O.3       1 <0>        -0.1469
      9 C8         -5.8697   -0.3237   -0.1534 C.ar      1 <0>         0.3181
     10 C9         -4.6484    0.3674   -0.0858 C.ar      1 <0>        -0.2568
     11 C10        -4.5906    1.5771    0.6204 C.ar      1 <0>         0.5809
     12 N1         -5.6995    2.0226    1.2035 N.ar      1 <0>        -0.5766
     13 C11        -6.8339    1.3397    1.1197 C.ar      1 <0>         0.6966
     14 N2         -6.9302    0.1990    0.4564 N.ar      1 <0>        -0.5517
     15 N3         -7.9623    1.8443    1.7437 N.pl3     1 <0>        -0.7841
     16 N4         -3.4086    2.2896    0.7088 N.pl3     1 <0>        -0.7696
     17 C12        -1.4935   -2.0365    0.3392 C.ar      1 <0>        -0.1103
     18 C13        -1.0202   -2.8769   -0.6501 C.ar      1 <0>        -0.0829
     19 C14        -1.0829   -4.2477   -0.4826 C.ar      1 <0>        -0.1491
     20 C15        -1.6188   -4.7814    0.6751 C.ar      1 <0>        -0.0773
     21 C16        -2.0929   -3.9456    1.6673 C.ar      1 <0>        -0.2045
     22 C17        -2.0263   -2.5693    1.5039 C.ar      1 <0>         0.1292
     23 O2         -2.4869   -1.7447    2.4810 O.3       1 <0>        -0.3182
     24 C18        -3.0221   -2.3632    3.6529 C.3       1 <0>         0.0252
     25 H1          1.1572    1.7168   -0.1398 H         1 <0>         0.0685
     26 H2         -0.3867    1.7470   -1.0252 H         1 <0>         0.0571
     27 H3         -0.3777    1.8474    0.7519 H         1 <0>         0.0521
     28 H4          0.4238   -0.5543   -0.9493 H         1 <0>         0.0798
     29 H5          0.4707   -0.1676    2.0781 H         1 <0>         0.0542
     30 H6          0.8053   -1.6913    1.2210 H         1 <0>         0.0580
     31 H7          1.9005   -0.3018    1.0265 H         1 <0>         0.0592
     32 H8         -1.8380   -0.0490    1.0358 H         1 <0>         0.0866
     33 H9         -2.1100    0.9239   -1.2663 H         1 <0>         0.0861
     34 H10        -1.8824   -0.7066   -1.9430 H         1 <0>         0.1019
     35 H11        -3.9593   -2.3128   -1.8725 H         1 <0>         0.2373
     36 H12        -7.9138    2.6820    2.2303 H         1 <0>         0.4490
     37 H13        -8.8013    1.3601    1.6942 H         1 <0>         0.4320
     38 H14        -2.6266    1.9950    0.2163 H         1 <0>         0.4298
     39 H15        -3.3615    3.0841    1.2634 H         1 <0>         0.4307
     40 H16        -0.6013   -2.4625   -1.5551 H         1 <0>         0.1309
     41 H17        -0.7131   -4.9030   -1.2574 H         1 <0>         0.1278
     42 H18        -1.6670   -5.8527    0.8035 H         1 <0>         0.1270
     43 H19        -2.5114   -4.3629    2.5713 H         1 <0>         0.1275
     44 H20        -3.8685   -2.9923    3.3774 H         1 <0>         0.0530
     45 H21        -2.2530   -2.9749    4.1243 H         1 <0>         0.0609
     46 H22        -3.3530   -1.5940    4.3507 H         1 <0>         0.0990
     47 H23        -7.7806   -0.2664    0.4232 H         1 <0>         0.4417
@<TRIPOS>BOND
     1    1    2 1
     2    1   25 1
     3    1   26 1
     4    1   27 1
     5    2    3 1
     6    2    4 1
     7    2   28 1
     8    3   29 1
     9    3   30 1
    10    3   31 1
    11    4    5 1
    12    4   17 1
    13    4   32 1
    14    5    6 1
    15    5   33 1
    16    5   34 1
    17    6   10 1
    18    6    7 2
    19    7    8 1
    20    7   35 1
    21    8    9 1
    22    9   14 ar
    23    9   10 ar
    24   10   11 ar
    25   11   12 ar
    26   11   16 1
    27   12   13 ar
    28   13   14 ar
    29   13   15 1
    30   14   47 1
    31   15   36 1
    32   15   37 1
    33   16   38 1
    34   16   39 1
    35   17   22 ar
    36   17   18 ar
    37   18   19 ar
    38   18   40 1
    39   19   20 ar
    40   19   41 1
    41   20   21 ar
    42   20   42 1
    43   21   22 ar
    44   21   43 1
    45   22   23 1
    46   23   24 1
    47   24   44 1
    48   24   45 1
    49   24   46 1
@<TRIPOS>MOLECULE
CHEMBL595757__3
   46    48     0     0     0
SMALL
USER_CHARGES

@<TRIPOS>ATOM
      1 C1          0.1121    1.4082   -0.1172 C.3       1 <0>        -0.1557
      2 C2          0.0326   -0.1173   -0.0306 C.3       1 <0>        -0.0876
      3 C3          0.8619   -0.6045    1.1593 C.3       1 <0>        -0.1457
      4 C4         -1.4254   -0.5423    0.1558 C.3       1 <0>        -0.0362
      5 C5         -2.2350   -0.1427   -1.0794 C.3       1 <0>        -0.0493
      6 C6         -3.6926   -0.4440   -0.8438 C.2       1 <0>        -0.1166
      7 C7         -4.3756   -1.5114   -1.2802 C.2       1 <0>        -0.0190
      8 O1         -5.6569   -1.4383   -0.8726 O.3       1 <0>        -0.1791
      9 C8         -5.8697   -0.3237   -0.1534 C.ar      1 <0>         0.3657
     10 C9         -4.6484    0.3674   -0.0858 C.ar      1 <0>        -0.3271
     11 C10        -4.5906    1.5771    0.6204 C.ar      1 <0>         0.5345
     12 N1         -5.6995    2.0226    1.2035 N.ar      1 <0>        -0.6311
     13 C11        -6.8339    1.3397    1.1197 C.ar      1 <0>         0.6350
     14 N2         -6.9302    0.1990    0.4564 N.ar      1 <0>        -0.5997
     15 N3         -7.9623    1.8443    1.7437 N.pl3     1 <0>        -0.8148
     16 N4         -3.4086    2.2896    0.7088 N.pl3     1 <0>        -0.8256
     17 C12        -1.4935   -2.0365    0.3392 C.ar      1 <0>        -0.0966
     18 C13        -1.0202   -2.8769   -0.6501 C.ar      1 <0>        -0.0835
     19 C14        -1.0829   -4.2477   -0.4826 C.ar      1 <0>        -0.1547
     20 C15        -1.6188   -4.7814    0.6751 C.ar      1 <0>        -0.0835
     21 C16        -2.0929   -3.9456    1.6673 C.ar      1 <0>        -0.2067
     22 C17        -2.0263   -2.5693    1.5039 C.ar      1 <0>         0.1347
     23 O2         -2.4869   -1.7447    2.4810 O.3       1 <0>        -0.3108
     24 C18        -3.0221   -2.3632    3.6529 C.3       1 <0>         0.0278
     25 H1          1.1572    1.7168   -0.1398 H         1 <0>         0.0610
     26 H2         -0.3867    1.7470   -1.0252 H         1 <0>         0.0574
     27 H3         -0.3777    1.8474    0.7519 H         1 <0>         0.0543
     28 H4          0.4238   -0.5543   -0.9493 H         1 <0>         0.0742
     29 H5          0.4707   -0.1676    2.0781 H         1 <0>         0.0538
     30 H6          0.8053   -1.6913    1.2210 H         1 <0>         0.0560
     31 H7          1.9005   -0.3018    1.0265 H         1 <0>         0.0539
     32 H8         -1.8380   -0.0490    1.0358 H         1 <0>         0.0890
     33 H9         -2.1100    0.9239   -1.2663 H         1 <0>         0.0760
     34 H10        -1.8824   -0.7066   -1.9430 H         1 <0>         0.0826
     35 H11        -3.9593   -2.3128   -1.8725 H         1 <0>         0.2085
     36 H12        -7.9138    2.6820    2.2303 H         1 <0>         0.4172
     37 H13        -8.8013    1.3601    1.6942 H         1 <0>         0.4166
     38 H14        -2.6266    1.9950    0.2163 H         1 <0>         0.4118
     39 H15        -3.3615    3.0841    1.2634 H         1 <0>         0.4088
     40 H16        -0.6013   -2.4625   -1.5551 H         1 <0>         0.1275
     41 H17        -0.7131   -4.9030   -1.2574 H         1 <0>         0.1228
     42 H18        -1.6670   -5.8527    0.8035 H         1 <0>         0.1225
     43 H19        -2.5114   -4.3629    2.5713 H         1 <0>         0.1250
     44 H20        -3.3530   -1.5940    4.3507 H         1 <0>         0.0976
     45 H21        -3.8685   -2.9923    3.3774 H         1 <0>         0.0538
     46 H22        -2.2530   -2.9749    4.1243 H         1 <0>         0.0554
@<TRIPOS>BOND
     1    1    2 1
     2    1   25 1
     3    1   26 1
     4    1   27 1
     5    2    3 1
     6    2    4 1
     7    2   28 1
     8    3   29 1
     9    3   30 1
    10    3   31 1
    11    4    5 1
    12    4   17 1
    13    4   32 1
    14    5    6 1
    15    5   33 1
    16    5   34 1
    17    6   10 1
    18    6    7 2
    19    7    8 1
    20    7   35 1
    21    8    9 1
    22    9   14 ar
    23    9   10 ar
    24   10   11 ar
    25   11   12 ar
    26   11   16 1
    27   12   13 ar
    28   13   14 ar
    29   13   15 1
    30   15   36 1
    31   15   37 1
    32   16   38 1
    33   16   39 1
    34   17   22 ar
    35   17   18 ar
    36   18   19 ar
    37   18   40 1
    38   19   20 ar
    39   19   41 1
    40   20   21 ar
    41   20   42 1
    42   21   22 ar
    43   21   43 1
    44   22   23 1
    45   23   24 1
    46   24   44 1
    47   24   45 1
    48   24   46 1
@<TRIPOS>MOLECULE
CHEMBL190340
   53    56     0     0     0
SMALL
USER_CHARGES

@<TRIPOS>ATOM
      1 C1          0.6019    1.5059    0.0255 C.3       1 <0>        -0.1553
      2 C2          0.5970   -0.0011    0.0166 C.ar      1 <0>         0.0407
      3 C3          0.7699   -0.7002   -1.1494 C.ar      1 <0>        -0.1788
      4 C4          0.7619   -2.0894   -1.1309 C.ar      1 <0>         0.2075
      5 N1          0.5916   -2.7658   -0.0168 N.ar      1 <0>        -0.4898
      6 C5          0.4182   -2.1439    1.1496 C.ar      1 <0>         0.4074
      7 C6          0.4215   -0.7279    1.1995 C.ar      1 <0>        -0.2764
      8 C7          0.2403   -0.0941    2.4537 C.ar      1 <0>         0.5213
      9 N2          0.0805   -0.8575    3.5254 N.ar      1 <0>        -0.6183
     10 C8          0.0886   -2.1844    3.4358 C.ar      1 <0>         0.6199
     11 N3          0.2432   -2.8239    2.2916 N.ar      1 <0>        -0.5910
     12 N4         -0.0830   -2.9256    4.5892 N.pl3     1 <0>        -0.8136
     13 N5          0.2308    1.2796    2.5567 N.pl3     1 <0>        -0.8465
     14 C9          0.9679    0.0364   -2.4491 C.3       1 <0>        -0.0235
     15 C10         2.4249    0.3852   -2.6119 C.ar      1 <0>        -0.0688
     16 C11         2.8872    1.6246   -2.2137 C.ar      1 <0>        -0.1137
     17 C12         4.2281    1.9454   -2.3631 C.ar      1 <0>         0.0938
     18 C13         5.1052    1.0217   -2.9124 C.ar      1 <0>        -0.1697
     19 C14         4.6431   -0.2174   -3.3105 C.ar      1 <0>        -0.1661
     20 C15         3.3028   -0.5402   -3.1562 C.ar      1 <0>         0.1031
     21 O1          2.8488   -1.7623   -3.5430 O.3       1 <0>        -0.3037
     22 C16         3.8083   -2.6657   -4.0955 C.3       1 <0>         0.1030
     23 C17         3.1272   -3.9587   -4.4633 C.ar      1 <0>        -0.0992
     24 C18         3.0351   -4.9796   -3.5359 C.ar      1 <0>        -0.0921
     25 C19         2.4103   -6.1656   -3.8734 C.ar      1 <0>        -0.1200
     26 C20         1.8773   -6.3306   -5.1381 C.ar      1 <0>        -0.1079
     27 C21         1.9686   -5.3093   -6.0652 C.ar      1 <0>        -0.1239
     28 C22         2.5896   -4.1217   -5.7264 C.ar      1 <0>        -0.0954
     29 O2          4.6830    3.1656   -1.9715 O.3       1 <0>        -0.3178
     30 C23         6.0757    3.4282   -2.1548 C.3       1 <0>         0.0274
     31 H1          1.5935    1.8644    0.3017 H         1 <0>         0.0864
     32 H2          0.3452    1.8760   -0.9671 H         1 <0>         0.0848
     33 H3         -0.1296    1.8673    0.7483 H         1 <0>         0.0980
     34 H4          0.8989   -2.6280   -2.0570 H         1 <0>         0.1667
     35 H5         -0.2060   -2.4769    5.4403 H         1 <0>         0.4149
     36 H6         -0.0806   -3.8947    4.5478 H         1 <0>         0.4175
     37 H7         -0.4109    1.7180    3.1371 H         1 <0>         0.4094
     38 H8          0.8658    1.8084    2.0488 H         1 <0>         0.4181
     39 H9          0.6512   -0.5971   -3.2777 H         1 <0>         0.0931
     40 H10         0.3741    0.9504   -2.4429 H         1 <0>         0.0877
     41 H11         2.2043    2.3439   -1.7864 H         1 <0>         0.1385
     42 H12         6.1494    1.2716   -3.0291 H         1 <0>         0.1301
     43 H13         5.3258   -0.9363   -3.7388 H         1 <0>         0.1311
     44 H14         4.2532   -2.2230   -4.9867 H         1 <0>         0.0702
     45 H15         4.5880   -2.8623   -3.3596 H         1 <0>         0.0694
     46 H16         3.4515   -4.8507   -2.5478 H         1 <0>         0.1240
     47 H17         2.3389   -6.9635   -3.1490 H         1 <0>         0.1258
     48 H18         1.3898   -7.2575   -5.4020 H         1 <0>         0.1240
     49 H19         1.5524   -5.4383   -7.0535 H         1 <0>         0.1246
     50 H20         2.6577   -3.3224   -6.4495 H         1 <0>         0.1232
     51 H21         6.3053    4.4336   -1.8021 H         1 <0>         0.1006
     52 H22         6.6598    2.7024   -1.5889 H         1 <0>         0.0541
     53 H23         6.3242    3.3487   -3.2131 H         1 <0>         0.0550
@<TRIPOS>BOND
     1    1    2 1
     2    1   31 1
     3    1   32 1
     4    1   33 1
     5    2    7 ar
     6    2    3 ar
     7    3    4 ar
     8    3   14 1
     9    4    5 ar
    10    4   34 1
    11    5    6 ar
    12    6   11 ar
    13    6    7 ar
    14    7    8 ar
    15    8    9 ar
    16    8   13 1
    17    9   10 ar
    18   10   11 ar
    19   10   12 1
    20   12   35 1
    21   12   36 1
    22   13   37 1
    23   13   38 1
    24   14   15 1
    25   14   39 1
    26   14   40 1
    27   15   20 ar
    28   15   16 ar
    29   16   17 ar
    30   16   41 1
    31   17   18 ar
    32   17   29 1
    33   18   19 ar
    34   18   42 1
    35   19   20 ar
    36   19   43 1
    37   20   21 1
    38   21   22 1
    39   22   23 1
    40   22   44 1
    41   22   45 1
    42   23   28 ar
    43   23   24 ar
    44   24   25 ar
    45   24   46 1
    46   25   26 ar
    47   25   47 1
    48   26   27 ar
    49   26   48 1
    50   27   28 ar
    51   27   49 1
    52   28   50 1
    53   29   30 1
    54   30   51 1
    55   30   52 1
    56   30   53 1
@<TRIPOS>MOLECULE
CHEMBL190340__1
   54    57     0     0     0
SMALL
USER_CHARGES

@<TRIPOS>ATOM
      1 C1          0.6019    1.5059    0.0255 C.3       1 <0>        -0.1697
      2 C2          0.5970   -0.0011    0.0166 C.ar      1 <0>         0.0596
      3 C3          0.7699   -0.7002   -1.1494 C.ar      1 <0>        -0.1355
      4 C4          0.7619   -2.0894   -1.1309 C.ar      1 <0>         0.2340
      5 N1          0.5916   -2.7658   -0.0168 N.ar      1 <0>        -0.4973
      6 C5          0.4182   -2.1439    1.1496 C.ar      1 <0>         0.3940
      7 C6          0.4215   -0.7279    1.1995 C.ar      1 <0>        -0.2356
      8 C7          0.2403   -0.0941    2.4537 C.ar      1 <0>         0.5776
      9 N2          0.0805   -0.8575    3.5254 N.ar      1 <0>        -0.5801
     10 C8          0.0886   -2.1844    3.4358 C.ar      1 <0>         0.6972
     11 N3          0.2432   -2.8239    2.2916 N.ar      1 <0>        -0.5708
     12 N4         -0.0830   -2.9256    4.5892 N.pl3     1 <0>        -0.7808
     13 N5          0.2308    1.2796    2.5567 N.pl3     1 <0>        -0.8041
     14 C9          0.9679    0.0364   -2.4491 C.3       1 <0>        -0.0328
     15 C10         2.4249    0.3852   -2.6119 C.ar      1 <0>        -0.0846
     16 C11         2.8872    1.6246   -2.2137 C.ar      1 <0>        -0.1155
     17 C12         4.2281    1.9454   -2.3631 C.ar      1 <0>         0.0988
     18 C13         5.1052    1.0217   -2.9124 C.ar      1 <0>        -0.1618
     19 C14         4.6431   -0.2174   -3.3105 C.ar      1 <0>        -0.1613
     20 C15         3.3028   -0.5402   -3.1562 C.ar      1 <0>         0.1026
     21 O1          2.8488   -1.7623   -3.5430 O.3       1 <0>        -0.3106
     22 C16         3.8083   -2.6657   -4.0955 C.3       1 <0>         0.1030
     23 C17         3.1272   -3.9587   -4.4633 C.ar      1 <0>        -0.1026
     24 C18         3.0351   -4.9796   -3.5359 C.ar      1 <0>        -0.0979
     25 C19         2.4103   -6.1656   -3.8734 C.ar      1 <0>        -0.1219
     26 C20         1.8773   -6.3306   -5.1381 C.ar      1 <0>        -0.1049
     27 C21         1.9686   -5.3093   -6.0652 C.ar      1 <0>        -0.1197
     28 C22         2.5896   -4.1217   -5.7264 C.ar      1 <0>        -0.0933
     29 O2          4.6830    3.1656   -1.9715 O.3       1 <0>        -0.3166
     30 C23         6.0757    3.4282   -2.1548 C.3       1 <0>         0.0253
     31 H1          1.5935    1.8644    0.3017 H         1 <0>         0.1061
     32 H2          0.3452    1.8760   -0.9671 H         1 <0>         0.1057
     33 H3         -0.1296    1.8673    0.7483 H         1 <0>         0.1047
     34 H4          0.8989   -2.6280   -2.0570 H         1 <0>         0.1930
     35 H5         -0.2060   -2.4769    5.4403 H         1 <0>         0.4471
     36 H6         -0.0806   -3.8947    4.5478 H         1 <0>         0.4327
     37 H7         -0.4109    1.7180    3.1371 H         1 <0>         0.4297
     38 H8          0.8658    1.8084    2.0488 H         1 <0>         0.4359
     39 H9          0.6512   -0.5971   -3.2777 H         1 <0>         0.1057
     40 H10         0.3741    0.9504   -2.4429 H         1 <0>         0.1004
     41 H11         2.2043    2.3439   -1.7864 H         1 <0>         0.1395
     42 H12         6.1494    1.2716   -3.0291 H         1 <0>         0.1349
     43 H13         5.3258   -0.9363   -3.7388 H         1 <0>         0.1349
     44 H14         4.2532   -2.2230   -4.9867 H         1 <0>         0.0744
     45 H15         4.5880   -2.8623   -3.3596 H         1 <0>         0.0709
     46 H16         3.4515   -4.8507   -2.5478 H         1 <0>         0.1208
     47 H17         2.3389   -6.9635   -3.1490 H         1 <0>         0.1254
     48 H18         1.3898   -7.2575   -5.4020 H         1 <0>         0.1265
     49 H19         1.5524   -5.4383   -7.0535 H         1 <0>         0.1279
     50 H20         2.6577   -3.3224   -6.4495 H         1 <0>         0.1254
     51 H21         6.6598    2.7024   -1.5889 H         1 <0>         0.0559
     52 H22         6.3242    3.3487   -3.2131 H         1 <0>         0.0584
     53 H23         6.3053    4.4336   -1.8021 H         1 <0>         0.1049
     54 H24         0.2412   -3.7938    2.2786 H         1 <0>         0.4443
@<TRIPOS>BOND
     1    1    2 1
     2    1   31 1
     3    1   32 1
     4    1   33 1
     5    2    7 ar
     6    2    3 ar
     7    3    4 ar
     8    3   14 1
     9    4    5 ar
    10    4   34 1
    11    5    6 ar
    12    6   11 ar
    13    6    7 ar
    14    7    8 ar
    15    8    9 ar
    16    8   13 1
    17    9   10 ar
    18   10   11 ar
    19   10   12 1
    20   11   54 1
    21   12   35 1
    22   12   36 1
    23   13   37 1
    24   13   38 1
    25   14   15 1
    26   14   39 1
    27   14   40 1
    28   15   20 ar
    29   15   16 ar
    30   16   17 ar
    31   16   41 1
    32   17   18 ar
    33   17   29 1
    34   18   19 ar
    35   18   42 1
    36   19   20 ar
    37   19   43 1
    38   20   21 1
    39   21   22 1
    40   22   23 1
    41   22   44 1
    42   22   45 1
    43   23   28 ar
    44   23   24 ar
    45   24   25 ar
    46   24   46 1
    47   25   26 ar
    48   25   47 1
    49   26   27 ar
    50   26   48 1
    51   27   28 ar
    52   27   49 1
    53   28   50 1
    54   29   30 1
    55   30   51 1
    56   30   52 1
    57   30   53 1
@<TRIPOS>MOLECULE
CHEMBL44919
   70    73     0     0     0
SMALL
USER_CHARGES

@<TRIPOS>ATOM
      1 C1          0.4041    1.3182    0.9527 C.ar      1 <0>        -0.1362
      2 C2          0.9300    2.0680   -0.0842 C.ar      1 <0>        -0.1255
      3 C3          1.7203    1.4711   -1.0484 C.ar      1 <0>        -0.0935
      4 C4          1.9918    0.1063   -0.9789 C.ar      1 <0>        -0.0918
      5 C5          1.4567   -0.6561    0.0769 C.ar      1 <0>        -0.0961
      6 C6          0.6630   -0.0376    1.0378 C.ar      1 <0>        -0.1123
      7 C7          1.7360   -2.1069    0.1636 C.2       1 <0>         0.5715
      8 O1          2.8840   -2.5057    0.1651 O.2       1 <0>        -0.4943
      9 N1          0.7172   -2.9859    0.2408 N.am      1 <0>        -0.7363
     10 C8          0.9937   -4.4220    0.3266 C.3       1 <0>         0.1256
     11 C9         -0.3263   -5.1919    0.4031 C.3       1 <0>        -0.1281
     12 C10        -0.0375   -6.6917    0.4927 C.3       1 <0>        -0.1133
     13 C11        -1.3575   -7.4615    0.5692 C.3       1 <0>        -0.1079
     14 C12        -1.0688   -8.9613    0.6588 C.3       1 <0>         0.0770
     15 C13        -2.3662   -9.7265    0.6104 C.2       1 <0>         0.4934
     16 O2         -2.8225  -10.0856   -0.4616 O.co2     1 <0>        -0.6967
     17 O3         -2.9596   -9.9863    1.6433 O.co2     1 <0>        -0.6944
     18 N2         -0.3775   -9.2512    1.9175 N.am      1 <0>        -0.6883
     19 C14         0.4103  -10.3401    2.0184 C.2       1 <0>         0.5539
     20 O4          0.5474  -11.0818    1.0647 O.2       1 <0>        -0.5518
     21 C15         1.1064  -10.6320    3.2859 C.ar      1 <0>        -0.1708
     22 C16         0.9452   -9.7833    4.3851 C.ar      1 <0>        -0.0357
     23 C17         1.5955  -10.0586    5.5662 C.ar      1 <0>        -0.1995
     24 C18         2.4135  -11.1805    5.6671 C.ar      1 <0>         0.2289
     25 C19         2.5764  -12.0274    4.5741 C.ar      1 <0>        -0.2064
     26 C20         1.9239  -11.7609    3.3922 C.ar      1 <0>        -0.0146
     27 N3          3.0695  -11.4557    6.8617 N.pl3     1 <0>        -0.7404
     28 C21         3.9307  -12.6359    6.9695 C.3       1 <0>         0.1870
     29 C22         4.5179  -12.7044    8.3558 C.ar      1 <0>         0.0279
     30 C23         3.8969  -13.4844    9.3308 C.ar      1 <0>         0.1579
     31 N4          4.3911  -13.5603   10.5483 N.ar      1 <0>        -0.4423
     32 C24         5.5004  -12.8819   10.8524 C.ar      1 <0>         0.3767
     33 C25         6.1274  -12.0908    9.8577 C.ar      1 <0>        -0.0919
     34 N5          5.6146  -12.0318    8.6328 N.ar      1 <0>        -0.3619
     35 C26         7.3416  -11.3621   10.2287 C.ar      1 <0>         0.5467
     36 N6          7.7796  -11.4880   11.4738 N.ar      1 <0>        -0.6305
     37 C27         7.1402  -12.2488   12.3566 C.ar      1 <0>         0.6410
     38 N7          6.0443  -12.9250   12.0750 N.ar      1 <0>        -0.6037
     39 N8          7.6514  -12.3354   13.6375 N.pl3     1 <0>        -0.8079
     40 N9          8.0065  -10.5733    9.3157 N.pl3     1 <0>        -0.7883
     41 C28         2.8352   -0.5368   -2.0066 C.2       1 <0>         0.5117
     42 O5          3.3975    0.1459   -2.8509 O.co2     1 <0>        -0.6942
     43 O6          2.9712   -1.7519   -2.0132 O.co2     1 <0>        -0.6493
     44 H1         -0.2088    1.7956    1.7030 H         1 <0>         0.1163
     45 H2          0.7214    3.1262   -0.1409 H         1 <0>         0.1155
     46 H3          2.1270    2.0623   -1.8555 H         1 <0>         0.1296
     47 H4          0.2490   -0.6164    1.8502 H         1 <0>         0.1192
     48 H5         -0.1991   -2.6676    0.2395 H         1 <0>         0.3917
     49 H6          1.5483   -4.7387   -0.5568 H         1 <0>         0.0670
     50 H7          1.5852   -4.6255    1.2192 H         1 <0>         0.0588
     51 H8         -0.8809   -4.8752    1.2864 H         1 <0>         0.0641
     52 H9         -0.9178   -4.9884   -0.4896 H         1 <0>         0.0679
     53 H10         0.5171   -7.0083   -0.3906 H         1 <0>         0.0655
     54 H11         0.5540   -6.8951    1.3853 H         1 <0>         0.0612
     55 H12        -1.9121   -7.1449    1.4525 H         1 <0>         0.0628
     56 H13        -1.9491   -7.2581   -0.3235 H         1 <0>         0.0759
     57 H14        -0.4389   -9.2608   -0.1789 H         1 <0>         0.0833
     58 H15        -0.4869   -8.6595    2.6783 H         1 <0>         0.3895
     59 H16         0.3113   -8.9124    4.3072 H         1 <0>         0.1263
     60 H17         1.4714   -9.4033    6.4157 H         1 <0>         0.1216
     61 H18         3.2119  -12.8968    4.6553 H         1 <0>         0.1235
     62 H19         2.0469  -12.4208    2.5461 H         1 <0>         0.1339
     63 H20         2.9570  -10.8662    7.6238 H         1 <0>         0.3990
     64 H21         3.3423  -13.5336    6.7794 H         1 <0>         0.0852
     65 H22         4.7351  -12.5669    6.2372 H         1 <0>         0.0828
     66 H23         2.9996  -14.0324    9.0841 H         1 <0>         0.1841
     67 H24         8.4567  -11.8482   13.8722 H         1 <0>         0.4164
     68 H25         7.2050  -12.8833   14.3019 H         1 <0>         0.4190
     69 H26         7.6715  -10.4934    8.4089 H         1 <0>         0.4283
     70 H27         8.8097  -10.0978    9.5796 H         1 <0>         0.4166
@<TRIPOS>BOND
     1    1    6 ar
     2    1    2 ar
     3    1   44 1
     4    2    3 ar
     5    2   45 1
     6    3    4 ar
     7    3   46 1
     8    4    5 ar
     9    4   41 1
    10    5    6 ar
    11    5    7 1
    12    6   47 1
    13    7    8 2
    14    7    9 am
    15    9   10 1
    16    9   48 1
    17   10   11 1
    18   10   49 1
    19   10   50 1
    20   11   12 1
    21   11   51 1
    22   11   52 1
    23   12   13 1
    24   12   53 1
    25   12   54 1
    26   13   14 1
    27   13   55 1
    28   13   56 1
    29   14   15 1
    30   14   18 1
    31   14   57 1
    32   15   16 2
    33   15   17 1
    34   18   19 am
    35   18   58 1
    36   19   20 2
    37   19   21 1
    38   21   26 ar
    39   21   22 ar
    40   22   23 ar
    41   22   59 1
    42   23   24 ar
    43   23   60 1
    44   24   25 ar
    45   24   27 1
    46   25   26 ar
    47   25   61 1
    48   26   62 1
    49   27   28 1
    50   27   63 1
    51   28   29 1
    52   28   64 1
    53   28   65 1
    54   29   34 ar
    55   29   30 ar
    56   30   31 ar
    57   30   66 1
    58   31   32 ar
    59   32   38 ar
    60   32   33 ar
    61   33   34 ar
    62   33   35 ar
    63   35   36 ar
    64   35   40 1
    65   36   37 ar
    66   37   38 ar
    67   37   39 1
    68   39   67 1
    69   39   68 1
    70   40   69 1
    71   40   70 1
    72   41   42 2
    73   41   43 1
@<TRIPOS>MOLECULE
CHEMBL44919__1
   70    73     0     0     0
SMALL
USER_CHARGES

@<TRIPOS>ATOM
      1 C1          0.4041    1.3182    0.9527 C.ar      1 <0>        -0.1359
      2 C2          0.9300    2.0680   -0.0842 C.ar      1 <0>        -0.1256
      3 C3          1.7203    1.4711   -1.0484 C.ar      1 <0>        -0.0937
      4 C4          1.9918    0.1063   -0.9789 C.ar      1 <0>        -0.0922
      5 C5          1.4567   -0.6561    0.0769 C.ar      1 <0>        -0.0960
      6 C6          0.6630   -0.0376    1.0378 C.ar      1 <0>        -0.1122
      7 C7          1.7360   -2.1069    0.1636 C.2       1 <0>         0.5715
      8 O1          2.8840   -2.5057    0.1651 O.2       1 <0>        -0.4940
      9 N1          0.7172   -2.9859    0.2408 N.am      1 <0>        -0.7364
     10 C8          0.9937   -4.4220    0.3266 C.3       1 <0>         0.1255
     11 C9         -0.3263   -5.1919    0.4031 C.3       1 <0>        -0.1280
     12 C10        -0.0375   -6.6917    0.4927 C.3       1 <0>        -0.1136
     13 C11        -1.3575   -7.4615    0.5692 C.3       1 <0>        -0.1070
     14 C12        -1.0688   -8.9613    0.6588 C.3       1 <0>         0.0768
     15 C13        -2.3611   -9.7107    0.8575 C.2       1 <0>         0.4924
     16 O2         -2.8074  -10.4049   -0.0399 O.co2     1 <0>        -0.6896
     17 O3         -2.9602   -9.6228    1.9157 O.co2     1 <0>        -0.7016
     18 N2         -0.4295   -9.4104   -0.5805 N.am      1 <0>        -0.6882
     19 C14         0.3564  -10.5054   -0.5749 C.2       1 <0>         0.5600
     20 O4          0.5348  -11.1204    0.4587 O.2       1 <0>        -0.5562
     21 C15         1.0002  -10.9576   -1.8229 C.ar      1 <0>        -0.1705
     22 C16         0.8007  -10.2482   -3.0108 C.ar      1 <0>        -0.0351
     23 C17         1.4030  -10.6723   -4.1731 C.ar      1 <0>        -0.1983
     24 C18         2.2099  -11.8068   -4.1669 C.ar      1 <0>         0.2289
     25 C19         2.4101  -12.5157   -2.9856 C.ar      1 <0>        -0.2070
     26 C20         1.8156  -12.0931   -1.8187 C.ar      1 <0>        -0.0154
     27 N3          2.8167  -12.2330   -5.3431 N.pl3     1 <0>        -0.7406
     28 C21         3.6660  -13.4267   -5.3383 C.3       1 <0>         0.1874
     29 C22         4.1976  -13.6705   -6.7272 C.ar      1 <0>         0.0288
     30 C23         5.4574  -13.1869   -7.0791 C.ar      1 <0>         0.1588
     31 N4          5.9431  -13.3876   -8.2857 N.ar      1 <0>        -0.4413
     32 C24         5.2203  -14.0626   -9.1829 C.ar      1 <0>         0.3766
     33 C25         3.9407  -14.5519   -8.8200 C.ar      1 <0>        -0.0923
     34 N5          3.4708  -14.3425   -7.5945 N.ar      1 <0>        -0.3628
     35 C26         3.1785  -15.2876   -9.8304 C.ar      1 <0>         0.5464
     36 N6          3.7335  -15.4503  -11.0234 N.ar      1 <0>        -0.6307
     37 C27         4.9401  -14.9634  -11.2954 C.ar      1 <0>         0.6404
     38 N7          5.6678  -14.2946  -10.4232 N.ar      1 <0>        -0.6025
     39 N8          5.4592  -15.1693  -12.5594 N.pl3     1 <0>        -0.8081
     40 N9          1.9279  -15.7936   -9.5512 N.pl3     1 <0>        -0.7896
     41 C28         2.8352   -0.5368   -2.0066 C.2       1 <0>         0.5121
     42 O5          3.3975    0.1459   -2.8509 O.co2     1 <0>        -0.6945
     43 O6          2.9712   -1.7519   -2.0132 O.co2     1 <0>        -0.6496
     44 H1         -0.2088    1.7956    1.7030 H         1 <0>         0.1165
     45 H2          0.7214    3.1262   -0.1409 H         1 <0>         0.1154
     46 H3          2.1270    2.0623   -1.8555 H         1 <0>         0.1295
     47 H4          0.2490   -0.6164    1.8502 H         1 <0>         0.1196
     48 H5         -0.1991   -2.6676    0.2395 H         1 <0>         0.3916
     49 H6          1.5483   -4.7387   -0.5568 H         1 <0>         0.0664
     50 H7          1.5852   -4.6255    1.2192 H         1 <0>         0.0595
     51 H8         -0.8809   -4.8752    1.2864 H         1 <0>         0.0656
     52 H9         -0.9178   -4.9884   -0.4896 H         1 <0>         0.0662
     53 H10         0.5171   -7.0083   -0.3906 H         1 <0>         0.0630
     54 H11         0.5540   -6.8951    1.3853 H         1 <0>         0.0633
     55 H12        -1.9121   -7.1449    1.4525 H         1 <0>         0.0792
     56 H13        -1.9491   -7.2581   -0.3235 H         1 <0>         0.0602
     57 H14        -0.4040   -9.1537    1.5009 H         1 <0>         0.0827
     58 H15        -0.5718   -8.9198   -1.4051 H         1 <0>         0.3893
     59 H16         0.1743   -9.3684   -3.0164 H         1 <0>         0.1263
     60 H17         1.2493  -10.1247   -5.0912 H         1 <0>         0.1223
     61 H18         3.0363  -13.3956   -2.9840 H         1 <0>         0.1230
     62 H19         1.9751  -12.6407   -0.9016 H         1 <0>         0.1330
     63 H20         2.6776  -11.7401   -6.1669 H         1 <0>         0.3994
     64 H21         4.4991  -13.2770   -4.6515 H         1 <0>         0.0852
     65 H22         3.0804  -14.2880   -5.0170 H         1 <0>         0.0822
     66 H23         6.0412  -12.6407   -6.3529 H         1 <0>         0.1849
     67 H24         4.9452  -15.6582  -13.2210 H         1 <0>         0.4161
     68 H25         6.3375  -14.8250  -12.7850 H         1 <0>         0.4192
     69 H26         1.5378  -15.6650   -8.6724 H         1 <0>         0.4280
     70 H27         1.4375  -16.2785  -10.2333 H         1 <0>         0.4158
@<TRIPOS>BOND
     1    1    6 ar
     2    1    2 ar
     3    1   44 1
     4    2    3 ar
     5    2   45 1
     6    3    4 ar
     7    3   46 1
     8    4    5 ar
     9    4   41 1
    10    5    6 ar
    11    5    7 1
    12    6   47 1
    13    7    8 2
    14    7    9 am
    15    9   10 1
    16    9   48 1
    17   10   11 1
    18   10   49 1
    19   10   50 1
    20   11   12 1
    21   11   51 1
    22   11   52 1
    23   12   13 1
    24   12   53 1
    25   12   54 1
    26   13   14 1
    27   13   55 1
    28   13   56 1
    29   14   15 1
    30   14   18 1
    31   14   57 1
    32   15   16 2
    33   15   17 1
    34   18   19 am
    35   18   58 1
    36   19   20 2
    37   19   21 1
    38   21   26 ar
    39   21   22 ar
    40   22   23 ar
    41   22   59 1
    42   23   24 ar
    43   23   60 1
    44   24   25 ar
    45   24   27 1
    46   25   26 ar
    47   25   61 1
    48   26   62 1
    49   27   28 1
    50   27   63 1
    51   28   29 1
    52   28   64 1
    53   28   65 1
    54   29   34 ar
    55   29   30 ar
    56   30   31 ar
    57   30   66 1
    58   31   32 ar
    59   32   38 ar
    60   32   33 ar
    61   33   34 ar
    62   33   35 ar
    63   35   36 ar
    64   35   40 1
    65   36   37 ar
    66   37   38 ar
    67   37   39 1
    68   39   67 1
    69   39   68 1
    70   40   69 1
    71   40   70 1
    72   41   42 2
    73   41   43 1
@<TRIPOS>MOLECULE
CHEMBL132142
   57    60     0     0     0
SMALL
USER_CHARGES

@<TRIPOS>ATOM
      1 C1         -0.0167    1.3593   -0.0428 C.ar      1 <0>        -0.1227
      2 C2          1.1682    2.0898   -0.0497 C.ar      1 <0>        -0.1278
      3 C3          2.3780    1.4628   -0.0476 C.ar      1 <0>        -0.1110
      4 C4          2.4333    0.0609   -0.0384 C.ar      1 <0>        -0.0970
      5 C5          1.2281   -0.6794   -0.0314 C.ar      1 <0>         0.0237
      6 C6          0.0019   -0.0041   -0.0337 C.ar      1 <0>        -0.1003
      7 C7          1.2934   -2.1404   -0.0218 C.ar      1 <0>        -0.1587
      8 C8          2.5408   -2.7584   -0.0198 C.ar      1 <0>        -0.0274
      9 C9          3.7011   -2.0067   -0.0268 C.ar      1 <0>        -0.2183
     10 C10         3.6689   -0.6249   -0.0355 C.ar      1 <0>         0.2368
     11 N1          4.8540    0.0914   -0.0428 N.pl3     1 <0>        -0.7363
     12 C11         6.1372   -0.6154   -0.0398 C.3       1 <0>         0.1719
     13 C12         7.2627    0.3867   -0.0491 C.ar      1 <0>        -0.2010
     14 C13         7.7696    0.8388   -1.2394 C.ar      1 <0>         0.0195
     15 C14         8.8145    1.7689   -1.1984 C.ar      1 <0>        -0.2910
     16 C15         9.4026    2.2940   -2.3758 C.ar      1 <0>         0.5274
     17 N2         10.3878    3.1714   -2.2475 N.ar      1 <0>        -0.6386
     18 C16        10.8197    3.5549   -1.0496 C.ar      1 <0>         0.6318
     19 N3         10.3071    3.0967    0.0769 N.ar      1 <0>        -0.6021
     20 C17         9.3058    2.2054    0.0567 C.ar      1 <0>         0.4175
     21 N4          8.7699    1.7278    1.1802 N.ar      1 <0>        -0.4863
     22 C18         7.7846    0.8583    1.1490 C.ar      1 <0>         0.2083
     23 N5         11.8503    4.4728   -0.9815 N.pl3     1 <0>        -0.8138
     24 N6          8.9624    1.9024   -3.6210 N.pl3     1 <0>        -0.8133
     25 C19         0.0619   -2.9432   -0.0139 C.2       1 <0>         0.5549
     26 O1         -1.0199   -2.3967    0.0912 O.2       1 <0>        -0.5566
     27 N7          0.1314   -4.2848   -0.1230 N.am      1 <0>        -0.6760
     28 C20        -1.0958   -5.0849   -0.1151 C.3       1 <0>         0.0746
     29 C21        -0.7781   -6.5013    0.3681 C.3       1 <0>        -0.0825
     30 C22        -0.3180   -6.4515    1.8265 C.3       1 <0>        -0.1768
     31 C23        -0.0050   -7.8467    2.3024 C.2       1 <0>         0.4909
     32 O2         -0.1376   -8.7932    1.5454 O.co2     1 <0>        -0.6980
     33 O3          0.3809   -8.0290    3.4445 O.co2     1 <0>        -0.7197
     34 C24        -1.6649   -5.1455   -1.5092 C.2       1 <0>         0.4987
     35 O4         -0.9217   -5.0884   -2.4740 O.co2     1 <0>        -0.6989
     36 O5         -2.8685   -5.2516   -1.6722 O.co2     1 <0>        -0.7019
     37 H1         -0.9633    1.8794   -0.0400 H         1 <0>         0.1193
     38 H2          1.1281    3.1690   -0.0571 H         1 <0>         0.1141
     39 H3          3.2896    2.0419   -0.0534 H         1 <0>         0.1120
     40 H4         -0.9242   -0.5598   -0.0281 H         1 <0>         0.1713
     41 H5          2.6028   -3.8366   -0.0123 H         1 <0>         0.1303
     42 H6          4.6560   -2.5114   -0.0247 H         1 <0>         0.1240
     43 H7          4.8345    1.0612   -0.0498 H         1 <0>         0.3978
     44 H8          6.2090   -1.2342    0.8546 H         1 <0>         0.0799
     45 H9          6.2060   -1.2473   -0.9253 H         1 <0>         0.0756
     46 H10         7.3747    0.4873   -2.1811 H         1 <0>         0.1384
     47 H11         7.3728    0.4972    2.0799 H         1 <0>         0.1705
     48 H12        12.2425    4.8230   -1.7966 H         1 <0>         0.4140
     49 H13        12.1815    4.7670   -0.1185 H         1 <0>         0.4173
     50 H14         8.2407    1.2592   -3.7001 H         1 <0>         0.4170
     51 H15         9.3742    2.2700   -4.4186 H         1 <0>         0.4144
     52 H16         0.9939   -4.7206   -0.2067 H         1 <0>         0.3907
     53 H17        -1.8236   -4.6271    0.5549 H         1 <0>         0.0781
     54 H18        -1.6715   -7.1209    0.2900 H         1 <0>         0.0719
     55 H19         0.0140   -6.9264   -0.2484 H         1 <0>         0.0597
     56 H20         0.5754   -5.8320    1.9046 H         1 <0>         0.0514
     57 H21        -1.1100   -6.0264    2.4430 H         1 <0>         0.0527
@<TRIPOS>BOND
     1    1    6 ar
     2    1    2 ar
     3    1   37 1
     4    2    3 ar
     5    2   38 1
     6    3    4 ar
     7    3   39 1
     8    4   10 ar
     9    4    5 ar
    10    5    6 ar
    11    5    7 ar
    12    6   40 1
    13    7    8 ar
    14    7   25 1
    15    8    9 ar
    16    8   41 1
    17    9   10 ar
    18    9   42 1
    19   10   11 1
    20   11   12 1
    21   11   43 1
    22   12   13 1
    23   12   44 1
    24   12   45 1
    25   13   22 ar
    26   13   14 ar
    27   14   15 ar
    28   14   46 1
    29   15   20 ar
    30   15   16 ar
    31   16   17 ar
    32   16   24 1
    33   17   18 ar
    34   18   19 ar
    35   18   23 1
    36   19   20 ar
    37   20   21 ar
    38   21   22 ar
    39   22   47 1
    40   23   48 1
    41   23   49 1
    42   24   50 1
    43   24   51 1
    44   25   26 2
    45   25   27 am
    46   27   28 1
    47   27   52 1
    48   28   29 1
    49   28   34 1
    50   28   53 1
    51   29   30 1
    52   29   54 1
    53   29   55 1
    54   30   31 1
    55   30   56 1
    56   30   57 1
    57   31   32 2
    58   31   33 1
    59   34   35 2
    60   34   36 1
@<TRIPOS>MOLECULE
CHEMBL132142__1
   58    61     0     0     0
SMALL
USER_CHARGES

@<TRIPOS>ATOM
      1 C1         -0.0167    1.3593   -0.0428 C.ar      1 <0>        -0.1231
      2 C2          1.1682    2.0898   -0.0497 C.ar      1 <0>        -0.1199
      3 C3          2.3780    1.4628   -0.0476 C.ar      1 <0>        -0.1195
      4 C4          2.4333    0.0609   -0.0384 C.ar      1 <0>        -0.0911
      5 C5          1.2281   -0.6794   -0.0314 C.ar      1 <0>         0.0192
      6 C6          0.0019   -0.0041   -0.0337 C.ar      1 <0>        -0.0937
      7 C7          1.2934   -2.1404   -0.0218 C.ar      1 <0>        -0.1392
      8 C8          2.5408   -2.7584   -0.0198 C.ar      1 <0>        -0.0379
      9 C9          3.7011   -2.0067   -0.0268 C.ar      1 <0>        -0.2048
     10 C10         3.6689   -0.6249   -0.0355 C.ar      1 <0>         0.2214
     11 N1          4.8540    0.0914   -0.0428 N.pl3     1 <0>        -0.7432
     12 C11         6.1372   -0.6154   -0.0398 C.3       1 <0>         0.1616
     13 C12         7.2627    0.3867   -0.0491 C.ar      1 <0>        -0.1526
     14 C13         7.7696    0.8388   -1.2394 C.ar      1 <0>         0.0302
     15 C14         8.8145    1.7689   -1.1984 C.ar      1 <0>        -0.2421
     16 C15         9.4026    2.2940   -2.3758 C.ar      1 <0>         0.5712
     17 N2         10.3878    3.1714   -2.2475 N.ar      1 <0>        -0.5954
     18 C16        10.8197    3.5549   -1.0496 C.ar      1 <0>         0.7055
     19 N3         10.3071    3.0967    0.0769 N.ar      1 <0>        -0.5774
     20 C17         9.3058    2.2054    0.0567 C.ar      1 <0>         0.4015
     21 N4          8.7699    1.7278    1.1802 N.ar      1 <0>        -0.4927
     22 C18         7.7846    0.8583    1.1490 C.ar      1 <0>         0.2365
     23 N5         11.8503    4.4728   -0.9815 N.pl3     1 <0>        -0.7838
     24 N6          8.9624    1.9024   -3.6210 N.pl3     1 <0>        -0.7594
     25 C19         0.0619   -2.9432   -0.0139 C.2       1 <0>         0.5496
     26 O1         -1.0199   -2.3967    0.0912 O.2       1 <0>        -0.5525
     27 N7          0.1314   -4.2848   -0.1230 N.am      1 <0>        -0.6719
     28 C20        -1.0958   -5.0849   -0.1151 C.3       1 <0>         0.0734
     29 C21        -0.7781   -6.5013    0.3681 C.3       1 <0>        -0.0833
     30 C22        -0.3180   -6.4515    1.8265 C.3       1 <0>        -0.1764
     31 C23        -0.0050   -7.8467    2.3024 C.2       1 <0>         0.4901
     32 O2         -0.1376   -8.7932    1.5454 O.co2     1 <0>        -0.6962
     33 O3          0.3809   -8.0290    3.4445 O.co2     1 <0>        -0.7192
     34 C24        -1.6649   -5.1455   -1.5092 C.2       1 <0>         0.4985
     35 O4         -0.9217   -5.0884   -2.4740 O.co2     1 <0>        -0.7001
     36 O5         -2.8685   -5.2516   -1.6722 O.co2     1 <0>        -0.6979
     37 H1         -0.9633    1.8794   -0.0400 H         1 <0>         0.1227
     38 H2          1.1281    3.1690   -0.0571 H         1 <0>         0.1153
     39 H3          3.2896    2.0419   -0.0534 H         1 <0>         0.1086
     40 H4         -0.9242   -0.5598   -0.0281 H         1 <0>         0.1739
     41 H5          2.6028   -3.8366   -0.0123 H         1 <0>         0.1334
     42 H6          4.6560   -2.5114   -0.0247 H         1 <0>         0.1234
     43 H7          4.8345    1.0612   -0.0498 H         1 <0>         0.3969
     44 H8          6.2090   -1.2342    0.8546 H         1 <0>         0.0908
     45 H9          6.2060   -1.2473   -0.9253 H         1 <0>         0.0873
     46 H10         7.3747    0.4873   -2.1811 H         1 <0>         0.1665
     47 H11         7.3728    0.4972    2.0799 H         1 <0>         0.1975
     48 H12        12.2425    4.8230   -1.7966 H         1 <0>         0.4458
     49 H13        12.1815    4.7670   -0.1185 H         1 <0>         0.4320
     50 H14         8.2407    1.2592   -3.7001 H         1 <0>         0.4346
     51 H15         9.3742    2.2700   -4.4186 H         1 <0>         0.4344
     52 H16         0.9939   -4.7206   -0.2067 H         1 <0>         0.3905
     53 H17        -1.8236   -4.6271    0.5549 H         1 <0>         0.0796
     54 H18        -1.6715   -7.1209    0.2900 H         1 <0>         0.0740
     55 H19         0.0140   -6.9264   -0.2484 H         1 <0>         0.0601
     56 H20         0.5754   -5.8320    1.9046 H         1 <0>         0.0494
     57 H21        -1.1100   -6.0264    2.4430 H         1 <0>         0.0532
     58 H22        10.6576    3.4073    0.9264 H         1 <0>         0.4443
@<TRIPOS>BOND
     1    1    6 ar
     2    1    2 ar
     3    1   37 1
     4    2    3 ar
     5    2   38 1
     6    3    4 ar
     7    3   39 1
     8    4   10 ar
     9    4    5 ar
    10    5    6 ar
    11    5    7 ar
    12    6   40 1
    13    7    8 ar
    14    7   25 1
    15    8    9 ar
    16    8   41 1
    17    9   10 ar
    18    9   42 1
    19   10   11 1
    20   11   12 1
    21   11   43 1
    22   12   13 1
    23   12   44 1
    24   12   45 1
    25   13   22 ar
    26   13   14 ar
    27   14   15 ar
    28   14   46 1
    29   15   20 ar
    30   15   16 ar
    31   16   17 ar
    32   16   24 1
    33   17   18 ar
    34   18   19 ar
    35   18   23 1
    36   19   20 ar
    37   19   58 1
    38   20   21 ar
    39   21   22 ar
    40   22   47 1
    41   23   48 1
    42   23   49 1
    43   24   50 1
    44   24   51 1
    45   25   26 2
    46   25   27 am
    47   27   28 1
    48   27   52 1
    49   28   29 1
    50   28   34 1
    51   28   53 1
    52   29   30 1
    53   29   54 1
    54   29   55 1
    55   30   31 1
    56   30   56 1
    57   30   57 1
    58   31   32 2
    59   31   33 1
    60   34   35 2
    61   34   36 1
@<TRIPOS>MOLECULE
CHEMBL132142__2
   57    60     0     0     0
SMALL
USER_CHARGES

@<TRIPOS>ATOM
      1 C1         -0.0167    1.3593   -0.0428 C.ar      1 <0>        -0.1236
      2 C2          1.1682    2.0898   -0.0497 C.ar      1 <0>        -0.1281
      3 C3          2.3780    1.4628   -0.0476 C.ar      1 <0>        -0.1112
      4 C4          2.4333    0.0609   -0.0384 C.ar      1 <0>        -0.0967
      5 C5          1.2281   -0.6794   -0.0314 C.ar      1 <0>         0.0231
      6 C6          0.0019   -0.0041   -0.0338 C.ar      1 <0>        -0.0997
      7 C7          1.2934   -2.1404   -0.0218 C.ar      1 <0>        -0.1560
      8 C8          2.5408   -2.7584   -0.0198 C.ar      1 <0>        -0.0282
      9 C9          3.7011   -2.0067   -0.0268 C.ar      1 <0>        -0.2177
     10 C10         3.6689   -0.6249   -0.0355 C.ar      1 <0>         0.2355
     11 N1          4.8540    0.0914   -0.0428 N.pl3     1 <0>        -0.7366
     12 C11         6.1372   -0.6154   -0.0398 C.3       1 <0>         0.1721
     13 C12         7.2627    0.3867   -0.0491 C.ar      1 <0>        -0.2010
     14 C13         7.7696    0.8388   -1.2394 C.ar      1 <0>         0.0195
     15 C14         8.8145    1.7689   -1.1984 C.ar      1 <0>        -0.2910
     16 C15         9.4026    2.2940   -2.3758 C.ar      1 <0>         0.5275
     17 N2         10.3878    3.1714   -2.2475 N.ar      1 <0>        -0.6386
     18 C16        10.8197    3.5549   -1.0496 C.ar      1 <0>         0.6318
     19 N3         10.3071    3.0967    0.0769 N.ar      1 <0>        -0.6023
     20 C17         9.3058    2.2054    0.0567 C.ar      1 <0>         0.4174
     21 N4          8.7699    1.7278    1.1802 N.ar      1 <0>        -0.4865
     22 C18         7.7846    0.8583    1.1490 C.ar      1 <0>         0.2082
     23 N5         11.8503    4.4728   -0.9815 N.pl3     1 <0>        -0.8139
     24 N6          8.9624    1.9024   -3.6210 N.pl3     1 <0>        -0.8131
     25 C19         0.0619   -2.9432   -0.0139 C.2       1 <0>         0.5618
     26 O1         -1.0199   -2.3967    0.0912 O.2       1 <0>        -0.5579
     27 N7          0.1314   -4.2848   -0.1230 N.am      1 <0>        -0.6765
     28 C20        -1.0958   -5.0849   -0.1151 C.3       1 <0>         0.0736
     29 C21        -0.8479   -6.4062   -0.8454 C.3       1 <0>        -0.0804
     30 C22        -0.5565   -6.1265   -2.3211 C.3       1 <0>        -0.1775
     31 C23        -0.3123   -7.4280   -3.0405 C.2       1 <0>         0.4908
     32 O2         -0.3663   -8.4817   -2.4294 O.co2     1 <0>        -0.6973
     33 O3         -0.0608   -7.4273   -4.2335 O.co2     1 <0>        -0.7209
     34 C24        -1.5028   -5.3663    1.3083 C.2       1 <0>         0.4956
     35 O4         -0.8302   -4.9383    2.2307 O.co2     1 <0>        -0.6962
     36 O5         -2.5048   -6.0221    1.5376 O.co2     1 <0>        -0.7011
     37 H1         -0.9633    1.8794   -0.0401 H         1 <0>         0.1189
     38 H2          1.1281    3.1690   -0.0571 H         1 <0>         0.1138
     39 H3          3.2896    2.0419   -0.0534 H         1 <0>         0.1118
     40 H4         -0.9242   -0.5598   -0.0281 H         1 <0>         0.1712
     41 H5          2.6028   -3.8366   -0.0123 H         1 <0>         0.1296
     42 H6          4.6560   -2.5114   -0.0247 H         1 <0>         0.1235
     43 H7          4.8345    1.0612   -0.0498 H         1 <0>         0.3976
     44 H8          6.2090   -1.2342    0.8546 H         1 <0>         0.0794
     45 H9          6.2060   -1.2473   -0.9253 H         1 <0>         0.0756
     46 H10         7.3747    0.4873   -2.1811 H         1 <0>         0.1385
     47 H11         7.3728    0.4972    2.0799 H         1 <0>         0.1704
     48 H12        12.2425    4.8230   -1.7966 H         1 <0>         0.4140
     49 H13        12.1815    4.7670   -0.1185 H         1 <0>         0.4172
     50 H14         8.2407    1.2592   -3.7001 H         1 <0>         0.4171
     51 H15         9.3742    2.2700   -4.4186 H         1 <0>         0.4145
     52 H16         0.9939   -4.7206   -0.2067 H         1 <0>         0.3885
     53 H17        -1.8911   -4.5352   -0.6185 H         1 <0>         0.0780
     54 H18         0.0054   -6.9148   -0.3967 H         1 <0>         0.0546
     55 H19        -1.7320   -7.0383   -0.7631 H         1 <0>         0.0785
     56 H20        -1.4098   -5.6179   -2.7698 H         1 <0>         0.0520
     57 H21         0.3276   -5.4944   -2.4035 H         1 <0>         0.0504
@<TRIPOS>BOND
     1    1    6 ar
     2    1    2 ar
     3    1   37 1
     4    2    3 ar
     5    2   38 1
     6    3    4 ar
     7    3   39 1
     8    4   10 ar
     9    4    5 ar
    10    5    6 ar
    11    5    7 ar
    12    6   40 1
    13    7    8 ar
    14    7   25 1
    15    8    9 ar
    16    8   41 1
    17    9   10 ar
    18    9   42 1
    19   10   11 1
    20   11   12 1
    21   11   43 1
    22   12   13 1
    23   12   44 1
    24   12   45 1
    25   13   22 ar
    26   13   14 ar
    27   14   15 ar
    28   14   46 1
    29   15   20 ar
    30   15   16 ar
    31   16   17 ar
    32   16   24 1
    33   17   18 ar
    34   18   19 ar
    35   18   23 1
    36   19   20 ar
    37   20   21 ar
    38   21   22 ar
    39   22   47 1
    40   23   48 1
    41   23   49 1
    42   24   50 1
    43   24   51 1
    44   25   26 2
    45   25   27 am
    46   27   28 1
    47   27   52 1
    48   28   29 1
    49   28   34 1
    50   28   53 1
    51   29   30 1
    52   29   54 1
    53   29   55 1
    54   30   31 1
    55   30   56 1
    56   30   57 1
    57   31   32 2
    58   31   33 1
    59   34   35 2
    60   34   36 1
@<TRIPOS>MOLECULE
CHEMBL132142__3
   58    61     0     0     0
SMALL
USER_CHARGES

@<TRIPOS>ATOM
      1 C1         -0.0167    1.3593   -0.0428 C.ar      1 <0>        -0.1240
      2 C2          1.1682    2.0898   -0.0497 C.ar      1 <0>        -0.1201
      3 C3          2.3780    1.4628   -0.0476 C.ar      1 <0>        -0.1197
      4 C4          2.4333    0.0609   -0.0384 C.ar      1 <0>        -0.0908
      5 C5          1.2281   -0.6794   -0.0314 C.ar      1 <0>         0.0186
      6 C6          0.0019   -0.0041   -0.0338 C.ar      1 <0>        -0.0932
      7 C7          1.2934   -2.1404   -0.0218 C.ar      1 <0>        -0.1364
      8 C8          2.5408   -2.7584   -0.0198 C.ar      1 <0>        -0.0387
      9 C9          3.7011   -2.0067   -0.0268 C.ar      1 <0>        -0.2041
     10 C10         3.6689   -0.6249   -0.0355 C.ar      1 <0>         0.2199
     11 N1          4.8540    0.0914   -0.0428 N.pl3     1 <0>        -0.7435
     12 C11         6.1372   -0.6154   -0.0398 C.3       1 <0>         0.1618
     13 C12         7.2627    0.3867   -0.0491 C.ar      1 <0>        -0.1525
     14 C13         7.7696    0.8388   -1.2394 C.ar      1 <0>         0.0303
     15 C14         8.8145    1.7689   -1.1984 C.ar      1 <0>        -0.2420
     16 C15         9.4026    2.2940   -2.3758 C.ar      1 <0>         0.5712
     17 N2         10.3878    3.1714   -2.2475 N.ar      1 <0>        -0.5953
     18 C16        10.8197    3.5549   -1.0496 C.ar      1 <0>         0.7055
     19 N3         10.3071    3.0967    0.0769 N.ar      1 <0>        -0.5774
     20 C17         9.3058    2.2054    0.0567 C.ar      1 <0>         0.4014
     21 N4          8.7699    1.7278    1.1802 N.ar      1 <0>        -0.4929
     22 C18         7.7846    0.8583    1.1490 C.ar      1 <0>         0.2363
     23 N5         11.8503    4.4728   -0.9815 N.pl3     1 <0>        -0.7838
     24 N6          8.9624    1.9024   -3.6210 N.pl3     1 <0>        -0.7592
     25 C19         0.0619   -2.9432   -0.0139 C.2       1 <0>         0.5565
     26 O1         -1.0199   -2.3967    0.0912 O.2       1 <0>        -0.5536
     27 N7          0.1314   -4.2848   -0.1230 N.am      1 <0>        -0.6724
     28 C20        -1.0958   -5.0849   -0.1151 C.3       1 <0>         0.0725
     29 C21        -0.8479   -6.4062   -0.8454 C.3       1 <0>        -0.0813
     30 C22        -0.5565   -6.1265   -2.3211 C.3       1 <0>        -0.1770
     31 C23        -0.3123   -7.4280   -3.0405 C.2       1 <0>         0.4900
     32 O2         -0.3663   -8.4817   -2.4294 O.co2     1 <0>        -0.6955
     33 O3         -0.0608   -7.4273   -4.2335 O.co2     1 <0>        -0.7204
     34 C24        -1.5028   -5.3663    1.3083 C.2       1 <0>         0.4956
     35 O4         -0.8302   -4.9383    2.2307 O.co2     1 <0>        -0.6981
     36 O5         -2.5048   -6.0221    1.5376 O.co2     1 <0>        -0.6966
     37 H1         -0.9633    1.8794   -0.0401 H         1 <0>         0.1223
     38 H2          1.1281    3.1690   -0.0571 H         1 <0>         0.1150
     39 H3          3.2896    2.0419   -0.0534 H         1 <0>         0.1084
     40 H4         -0.9242   -0.5598   -0.0281 H         1 <0>         0.1738
     41 H5          2.6028   -3.8366   -0.0123 H         1 <0>         0.1328
     42 H6          4.6560   -2.5114   -0.0247 H         1 <0>         0.1228
     43 H7          4.8345    1.0612   -0.0498 H         1 <0>         0.3968
     44 H8          6.2090   -1.2342    0.8546 H         1 <0>         0.0903
     45 H9          6.2060   -1.2473   -0.9253 H         1 <0>         0.0873
     46 H10         7.3747    0.4873   -2.1811 H         1 <0>         0.1666
     47 H11         7.3728    0.4972    2.0799 H         1 <0>         0.1973
     48 H12        12.2425    4.8230   -1.7966 H         1 <0>         0.4458
     49 H13        12.1815    4.7670   -0.1185 H         1 <0>         0.4320
     50 H14         8.2407    1.2592   -3.7001 H         1 <0>         0.4346
     51 H15         9.3742    2.2700   -4.4186 H         1 <0>         0.4345
     52 H16         0.9939   -4.7206   -0.2067 H         1 <0>         0.3883
     53 H17        -1.8911   -4.5352   -0.6185 H         1 <0>         0.0795
     54 H18         0.0054   -6.9148   -0.3967 H         1 <0>         0.0549
     55 H19        -1.7320   -7.0383   -0.7631 H         1 <0>         0.0805
     56 H20        -1.4098   -5.6179   -2.7698 H         1 <0>         0.0525
     57 H21         0.3276   -5.4944   -2.4035 H         1 <0>         0.0484
     58 H22        10.6576    3.4073    0.9264 H         1 <0>         0.4442
@<TRIPOS>BOND
     1    1    6 ar
     2    1    2 ar
     3    1   37 1
     4    2    3 ar
     5    2   38 1
     6    3    4 ar
     7    3   39 1
     8    4   10 ar
     9    4    5 ar
    10    5    6 ar
    11    5    7 ar
    12    6   40 1
    13    7    8 ar
    14    7   25 1
    15    8    9 ar
    16    8   41 1
    17    9   10 ar
    18    9   42 1
    19   10   11 1
    20   11   12 1
    21   11   43 1
    22   12   13 1
    23   12   44 1
    24   12   45 1
    25   13   22 ar
    26   13   14 ar
    27   14   15 ar
    28   14   46 1
    29   15   20 ar
    30   15   16 ar
    31   16   17 ar
    32   16   24 1
    33   17   18 ar
    34   18   19 ar
    35   18   23 1
    36   19   20 ar
    37   19   58 1
    38   20   21 ar
    39   21   22 ar
    40   22   47 1
    41   23   48 1
    42   23   49 1
    43   24   50 1
    44   24   51 1
    45   25   26 2
    46   25   27 am
    47   27   28 1
    48   27   52 1
    49   28   29 1
    50   28   34 1
    51   28   53 1
    52   29   30 1
    53   29   54 1
    54   29   55 1
    55   30   31 1
    56   30   56 1
    57   30   57 1
    58   31   32 2
    59   31   33 1
    60   34   35 2
    61   34   36 1
@<TRIPOS>MOLECULE
CHEMBL423200
   41    45     0     0     0
SMALL
USER_CHARGES

@<TRIPOS>ATOM
      1 C1         -0.0166    1.3739    0.0096 C.ar      1 <0>        -0.1502
      2 C2          1.1715    2.0887    0.0021 C.ar      1 <0>        -0.0861
      3 C3          2.3835    1.4330   -0.0135 C.ar      1 <0>        -0.1362
      4 C4          2.4230    0.0419   -0.0218 C.ar      1 <0>         0.1464
      5 C5          1.2201   -0.6797   -0.0137 C.ar      1 <0>        -0.1038
      6 C6          0.0021   -0.0041    0.0020 C.ar      1 <0>        -0.0630
      7 C7          1.5887   -2.1073   -0.0265 C.ar      1 <0>        -0.1030
      8 C8          0.8500   -3.2882   -0.0266 C.ar      1 <0>        -0.0602
      9 C9          1.5007   -4.5029   -0.0413 C.ar      1 <0>        -0.1501
     10 C10         2.8862   -4.5530   -0.0561 C.ar      1 <0>        -0.0802
     11 C11         3.6293   -3.3925   -0.0558 C.ar      1 <0>        -0.1460
     12 C12         2.9905   -2.1561   -0.0414 C.ar      1 <0>         0.1424
     13 N1          3.4724   -0.8594   -0.0383 N.pl3     1 <0>        -0.5015
     14 C13         4.8908   -0.4931   -0.0508 C.3       1 <0>         0.1781
     15 C14         5.3919   -0.3763    1.3657 C.ar      1 <0>         0.0118
     16 C15         5.8326   -1.5157    2.0382 C.ar      1 <0>         0.1573
     17 N2          6.2750   -1.4387    3.2754 N.ar      1 <0>        -0.4381
     18 C16         6.3018   -0.2552    3.8930 C.ar      1 <0>         0.3805
     19 C17         5.8528    0.8995    3.2048 C.ar      1 <0>        -0.0907
     20 N3          5.4144    0.8008    1.9539 N.ar      1 <0>        -0.3606
     21 C18         5.8978    2.1790    3.9147 C.ar      1 <0>         0.5472
     22 N4          6.3565    2.1777    5.1587 N.ar      1 <0>        -0.6272
     23 C19         6.7620    1.0550    5.7435 C.ar      1 <0>         0.6435
     24 N5          6.7425   -0.1220    5.1501 N.ar      1 <0>        -0.6019
     25 N6          7.2287    1.1253    7.0422 N.pl3     1 <0>        -0.8042
     26 N7          5.4786    3.3442    3.3109 N.pl3     1 <0>        -0.7895
     27 H1         -0.9602    1.8990    0.0259 H         1 <0>         0.1259
     28 H2          1.1469    3.1684    0.0081 H         1 <0>         0.1275
     29 H3          3.3032    1.9991   -0.0196 H         1 <0>         0.1243
     30 H4         -0.9248   -0.5584    0.0083 H         1 <0>         0.1244
     31 H5         -0.2293   -3.2520   -0.0147 H         1 <0>         0.1246
     32 H6          0.9292   -5.4194   -0.0411 H         1 <0>         0.1270
     33 H7          3.3873   -5.5097   -0.0676 H         1 <0>         0.1301
     34 H8          4.7081   -3.4425   -0.0666 H         1 <0>         0.1229
     35 H9          5.4597   -1.2607   -0.5753 H         1 <0>         0.1113
     36 H10         5.0147    0.4627   -0.5600 H         1 <0>         0.1090
     37 H11         5.8102   -2.4726    1.5381 H         1 <0>         0.1764
     38 H12         7.2541    1.9785    7.5029 H         1 <0>         0.4181
     39 H13         7.5309    0.3215    7.4932 H         1 <0>         0.4207
     40 H14         5.1463    3.3260    2.3998 H         1 <0>         0.4255
     41 H15         5.5158    4.1829    3.7969 H         1 <0>         0.4174
@<TRIPOS>BOND
     1    1    6 ar
     2    1    2 ar
     3    1   27 1
     4    2    3 ar
     5    2   28 1
     6    3    4 ar
     7    3   29 1
     8    4   13 1
     9    4    5 ar
    10    5    6 ar
    11    5    7 1
    12    6   30 1
    13    7   12 ar
    14    7    8 ar
    15    8    9 ar
    16    8   31 1
    17    9   10 ar
    18    9   32 1
    19   10   11 ar
    20   10   33 1
    21   11   12 ar
    22   11   34 1
    23   12   13 1
    24   13   14 1
    25   14   15 1
    26   14   35 1
    27   14   36 1
    28   15   20 ar
    29   15   16 ar
    30   16   17 ar
    31   16   37 1
    32   17   18 ar
    33   18   24 ar
    34   18   19 ar
    35   19   20 ar
    36   19   21 ar
    37   21   22 ar
    38   21   26 1
    39   22   23 ar
    40   23   24 ar
    41   23   25 1
    42   25   38 1
    43   25   39 1
    44   26   40 1
    45   26   41 1
@<TRIPOS>MOLECULE
CHEMBL342086
   47    51     0     0     0
SMALL
USER_CHARGES

@<TRIPOS>ATOM
      1 C1         -0.0166    1.3714    0.0096 C.ar      1 <0>        -0.1332
      2 C2          1.1683    2.0853    0.0021 C.ar      1 <0>        -0.1056
      3 C3          2.3648    1.4011   -0.0283 C.ar      1 <0>        -0.1356
      4 C4          2.3834    0.0095   -0.0423 C.ar      1 <0>         0.1955
      5 C5          1.2033   -0.7169   -0.0084 C.ar      1 <0>        -0.0963
      6 C6          0.0021   -0.0041    0.0020 C.ar      1 <0>        -0.1122
      7 C7          1.0475   -2.2194    0.0591 C.3       1 <0>        -0.0623
      8 C8          2.3749   -2.9545    0.1122 C.3       1 <0>        -0.0797
      9 C9          3.1913   -2.6982   -1.1281 C.ar      1 <0>        -0.0911
     10 C10         3.2805   -3.6023   -2.1619 C.ar      1 <0>        -0.1033
     11 C11         4.0793   -3.2911   -3.2528 C.ar      1 <0>        -0.1198
     12 C12         4.7741   -2.0958   -3.2956 C.ar      1 <0>        -0.1127
     13 C13         4.6710   -1.1875   -2.2544 C.ar      1 <0>        -0.1166
     14 C14         3.8601   -1.5031   -1.1782 C.ar      1 <0>         0.1587
     15 N1          3.6297   -0.6240   -0.1136 N.pl3     1 <0>        -0.6082
     16 C15         4.6620   -0.3740    0.8954 C.3       1 <0>         0.1999
     17 C16         4.5137   -1.3642    2.0217 C.ar      1 <0>         0.0224
     18 C17         5.2752   -2.5324    2.0187 C.ar      1 <0>         0.1521
     19 N2          5.1635   -3.4119    2.9915 N.ar      1 <0>        -0.4403
     20 C18         4.3106   -3.1818    3.9928 C.ar      1 <0>         0.3742
     21 C19         3.5392   -1.9929    3.9909 C.ar      1 <0>        -0.0905
     22 N3          3.6708   -1.1154    3.0013 N.ar      1 <0>        -0.3627
     23 C20         2.6156   -1.7757    5.1058 C.ar      1 <0>         0.5447
     24 N4          2.5583   -2.7059    6.0488 N.ar      1 <0>        -0.6290
     25 C21         3.3124   -3.7988    5.9866 C.ar      1 <0>         0.6404
     26 N5          4.1591   -4.0432    5.0064 N.ar      1 <0>        -0.6027
     27 N6          3.2027   -4.7281    7.0035 N.pl3     1 <0>        -0.8070
     28 N7          1.8333   -0.6437    5.1729 N.pl3     1 <0>        -0.7908
     29 H1         -0.9604    1.8962    0.0259 H         1 <0>         0.1196
     30 H2          1.1563    3.1651    0.0195 H         1 <0>         0.1238
     31 H3          3.2951    1.9493   -0.0419 H         1 <0>         0.1226
     32 H4         -0.9328   -0.5448    0.0045 H         1 <0>         0.1167
     33 H5          0.4710   -2.4723    0.9489 H         1 <0>         0.0730
     34 H6          0.4963   -2.5544   -0.8196 H         1 <0>         0.0726
     35 H7          2.9351   -2.6175    0.9844 H         1 <0>         0.0747
     36 H8          2.1872   -4.0245    0.2013 H         1 <0>         0.0660
     37 H9          2.7394   -4.5362   -2.1246 H         1 <0>         0.1244
     38 H10         4.1594   -3.9874   -4.0745 H         1 <0>         0.1229
     39 H11         5.4008   -1.8693   -4.1455 H         1 <0>         0.1247
     40 H12         5.2123   -0.2533   -2.2818 H         1 <0>         0.1276
     41 H13         5.6472   -0.4840    0.4422 H         1 <0>         0.0959
     42 H14         4.5520    0.6382    1.2846 H         1 <0>         0.0940
     43 H15         5.9645   -2.7179    1.2083 H         1 <0>         0.1749
     44 H16         2.5874   -4.5737    7.7373 H         1 <0>         0.4171
     45 H17         3.7411   -5.5347    6.9834 H         1 <0>         0.4197
     46 H18         1.8888    0.0264    4.4738 H         1 <0>         0.4260
     47 H19         1.2269   -0.5167    5.9193 H         1 <0>         0.4158
@<TRIPOS>BOND
     1    1    6 ar
     2    1    2 ar
     3    1   29 1
     4    2    3 ar
     5    2   30 1
     6    3    4 ar
     7    3   31 1
     8    4   15 1
     9    4    5 ar
    10    5    6 ar
    11    5    7 1
    12    6   32 1
    13    7    8 1
    14    7   33 1
    15    7   34 1
    16    8    9 1
    17    8   35 1
    18    8   36 1
    19    9   14 ar
    20    9   10 ar
    21   10   11 ar
    22   10   37 1
    23   11   12 ar
    24   11   38 1
    25   12   13 ar
    26   12   39 1
    27   13   14 ar
    28   13   40 1
    29   14   15 1
    30   15   16 1
    31   16   17 1
    32   16   41 1
    33   16   42 1
    34   17   22 ar
    35   17   18 ar
    36   18   19 ar
    37   18   43 1
    38   19   20 ar
    39   20   26 ar
    40   20   21 ar
    41   21   22 ar
    42   21   23 ar
    43   23   24 ar
    44   23   28 1
    45   24   25 ar
    46   25   26 ar
    47   25   27 1
    48   27   44 1
    49   27   45 1
    50   28   46 1
    51   28   47 1
@<TRIPOS>MOLECULE
CHEMBL359454
   46    49     0     0     0
SMALL
USER_CHARGES

@<TRIPOS>ATOM
      1 C1          0.9108    1.4519   -0.0954 C.3       1 <0>        -0.1696
      2 C2          0.6964   -0.0396   -0.1129 C.ar      1 <0>         0.0722
      3 C3          0.7106   -0.7407   -1.2904 C.ar      1 <0>        -0.1753
      4 C4          0.5108   -2.1155   -1.2796 C.ar      1 <0>         0.2359
      5 N1          0.3056   -2.7764   -0.1621 N.ar      1 <0>        -0.4971
      6 C5          0.2804   -2.1518    1.0154 C.ar      1 <0>         0.4025
      7 C6          0.4827   -0.7507    1.0734 C.ar      1 <0>        -0.2382
      8 C7          0.4557   -0.1143    2.3391 C.ar      1 <0>         0.5781
      9 N2          0.2467   -0.8622    3.4132 N.ar      1 <0>        -0.5788
     10 C8          0.0660   -2.1762    3.3156 C.ar      1 <0>         0.6987
     11 N3          0.0715   -2.8160    2.1611 N.ar      1 <0>        -0.5715
     12 N4         -0.1474   -2.9016    4.4721 N.pl3     1 <0>        -0.7783
     13 N5          0.6423    1.2460    2.4504 N.pl3     1 <0>        -0.8035
     14 C9          0.9420   -0.0216   -2.5944 C.3       1 <0>         0.1813
     15 N6          2.3783    0.1955   -2.7842 N.pl3     1 <0>        -0.6253
     16 C10         3.0969    1.4208   -2.4244 C.3       1 <0>         0.1157
     17 C11         4.5608    1.1580   -2.8143 C.3       1 <0>        -0.0728
     18 C12         4.5561   -0.2428   -3.3835 C.ar      1 <0>        -0.2009
     19 C13         3.2630   -0.7369   -3.3285 C.ar      1 <0>         0.2235
     20 C14         3.0093   -2.0278   -3.7981 C.ar      1 <0>        -0.2151
     21 C15         4.0334   -2.7998   -4.3049 C.ar      1 <0>        -0.0343
     22 C16         5.3220   -2.3036   -4.3532 C.ar      1 <0>        -0.2510
     23 C17         5.5831   -1.0188   -3.8977 C.ar      1 <0>         0.1862
     24 O1          6.8491   -0.5266   -3.9426 O.3       1 <0>        -0.3154
     25 C18         7.8583   -1.3806   -4.4851 C.3       1 <0>         0.0260
     26 H1          1.9560    1.6662    0.1274 H         1 <0>         0.1061
     27 H2          0.6546    1.8673   -1.0701 H         1 <0>         0.1038
     28 H3          0.2768    1.9012    0.6690 H         1 <0>         0.1066
     29 H4          0.5241   -2.6558   -2.2147 H         1 <0>         0.1896
     30 H5         -0.1631   -2.4514    5.3311 H         1 <0>         0.4479
     31 H6         -0.2816   -3.8611    4.4249 H         1 <0>         0.4336
     32 H7          0.1000    1.7610    3.0682 H         1 <0>         0.4305
     33 H8          1.3159    1.6889    1.9110 H         1 <0>         0.4354
     34 H9          0.5540   -0.6243   -3.4155 H         1 <0>         0.0995
     35 H10         0.4286    0.9398   -2.5752 H         1 <0>         0.1050
     36 H11         2.7027    2.2688   -2.9845 H         1 <0>         0.0754
     37 H12         3.0181    1.6048   -1.3530 H         1 <0>         0.0639
     38 H13         4.8880    1.8739   -3.5684 H         1 <0>         0.0872
     39 H14         5.2036    1.2094   -1.9355 H         1 <0>         0.0821
     40 H15         2.0050   -2.4237   -3.7637 H         1 <0>         0.1149
     41 H16         3.8274   -3.7968   -4.6652 H         1 <0>         0.1292
     42 H17         6.1220   -2.9109   -4.7500 H         1 <0>         0.1313
     43 H18         7.9196   -2.2929   -3.8919 H         1 <0>         0.0573
     44 H19         7.6055   -1.6330   -5.5149 H         1 <0>         0.0591
     45 H20         8.8195   -0.8671   -4.4624 H         1 <0>         0.1031
     46 H21        -0.0658   -3.7760    2.1425 H         1 <0>         0.4455
@<TRIPOS>BOND
     1    1    2 1
     2    1   26 1
     3    1   27 1
     4    1   28 1
     5    2    7 ar
     6    2    3 ar
     7    3    4 ar
     8    3   14 1
     9    4    5 ar
    10    4   29 1
    11    5    6 ar
    12    6   11 ar
    13    6    7 ar
    14    7    8 ar
    15    8    9 ar
    16    8   13 1
    17    9   10 ar
    18   10   11 ar
    19   10   12 1
    20   11   46 1
    21   12   30 1
    22   12   31 1
    23   13   32 1
    24   13   33 1
    25   14   15 1
    26   14   34 1
    27   14   35 1
    28   15   19 1
    29   15   16 1
    30   16   17 1
    31   16   36 1
    32   16   37 1
    33   17   18 1
    34   17   38 1
    35   17   39 1
    36   18   23 ar
    37   18   19 ar
    38   19   20 ar
    39   20   21 ar
    40   20   40 1
    41   21   22 ar
    42   21   41 1
    43   22   23 ar
    44   22   42 1
    45   23   24 1
    46   24   25 1
    47   25   43 1
    48   25   44 1
    49   25   45 1
@<TRIPOS>MOLECULE
CHEMBL359454__1
   45    48     0     0     0
SMALL
USER_CHARGES

@<TRIPOS>ATOM
      1 C1          0.9108    1.4519   -0.0954 C.3       1 <0>        -0.1552
      2 C2          0.6964   -0.0396   -0.1129 C.ar      1 <0>         0.0542
      3 C3          0.7106   -0.7407   -1.2904 C.ar      1 <0>        -0.2172
      4 C4          0.5108   -2.1155   -1.2796 C.ar      1 <0>         0.2077
      5 N1          0.3056   -2.7764   -0.1621 N.ar      1 <0>        -0.4884
      6 C5          0.2804   -2.1518    1.0154 C.ar      1 <0>         0.4133
      7 C6          0.4827   -0.7507    1.0734 C.ar      1 <0>        -0.2790
      8 C7          0.4557   -0.1143    2.3391 C.ar      1 <0>         0.5227
      9 N2          0.2467   -0.8622    3.4132 N.ar      1 <0>        -0.6171
     10 C8          0.0660   -2.1762    3.3156 C.ar      1 <0>         0.6230
     11 N3          0.0715   -2.8160    2.1611 N.ar      1 <0>        -0.5908
     12 N4         -0.1474   -2.9016    4.4721 N.pl3     1 <0>        -0.8114
     13 N5          0.6423    1.2460    2.4504 N.pl3     1 <0>        -0.8458
     14 C9          0.9420   -0.0216   -2.5944 C.3       1 <0>         0.1907
     15 N6          2.3783    0.1955   -2.7842 N.pl3     1 <0>        -0.6204
     16 C10         3.0969    1.4208   -2.4244 C.3       1 <0>         0.1148
     17 C11         4.5608    1.1580   -2.8143 C.3       1 <0>        -0.0699
     18 C12         4.5561   -0.2428   -3.3835 C.ar      1 <0>        -0.2077
     19 C13         3.2630   -0.7369   -3.3285 C.ar      1 <0>         0.2358
     20 C14         3.0093   -2.0278   -3.7981 C.ar      1 <0>        -0.2121
     21 C15         4.0334   -2.7998   -4.3049 C.ar      1 <0>        -0.0350
     22 C16         5.3220   -2.3036   -4.3532 C.ar      1 <0>        -0.2594
     23 C17         5.5831   -1.0188   -3.8977 C.ar      1 <0>         0.1825
     24 O1          6.8491   -0.5266   -3.9426 O.3       1 <0>        -0.3177
     25 C18         7.8583   -1.3806   -4.4851 C.3       1 <0>         0.0280
     26 H1          1.9560    1.6662    0.1274 H         1 <0>         0.0868
     27 H2          0.6546    1.8673   -1.0701 H         1 <0>         0.0828
     28 H3          0.2768    1.9012    0.6690 H         1 <0>         0.1000
     29 H4          0.5241   -2.6558   -2.2147 H         1 <0>         0.1629
     30 H5         -0.1631   -2.4514    5.3311 H         1 <0>         0.4158
     31 H6         -0.2816   -3.8611    4.4249 H         1 <0>         0.4186
     32 H7          0.1000    1.7610    3.0682 H         1 <0>         0.4103
     33 H8          1.3159    1.6889    1.9110 H         1 <0>         0.4176
     34 H9          0.5540   -0.6243   -3.4155 H         1 <0>         0.0876
     35 H10         0.4286    0.9398   -2.5752 H         1 <0>         0.0927
     36 H11         2.7027    2.2688   -2.9845 H         1 <0>         0.0700
     37 H12         3.0181    1.6048   -1.3530 H         1 <0>         0.0664
     38 H13         4.8880    1.8739   -3.5684 H         1 <0>         0.0820
     39 H14         5.2036    1.2094   -1.9355 H         1 <0>         0.0793
     40 H15         2.0050   -2.4237   -3.7637 H         1 <0>         0.1175
     41 H16         3.8274   -3.7968   -4.6652 H         1 <0>         0.1263
     42 H17         6.1220   -2.9109   -4.7500 H         1 <0>         0.1269
     43 H18         8.8195   -0.8671   -4.4624 H         1 <0>         0.0988
     44 H19         7.9196   -2.2929   -3.8919 H         1 <0>         0.0557
     45 H20         7.6055   -1.6330   -5.5149 H         1 <0>         0.0562
@<TRIPOS>BOND
     1    1    2 1
     2    1   26 1
     3    1   27 1
     4    1   28 1
     5    2    7 ar
     6    2    3 ar
     7    3    4 ar
     8    3   14 1
     9    4    5 ar
    10    4   29 1
    11    5    6 ar
    12    6   11 ar
    13    6    7 ar
    14    7    8 ar
    15    8    9 ar
    16    8   13 1
    17    9   10 ar
    18   10   11 ar
    19   10   12 1
    20   12   30 1
    21   12   31 1
    22   13   32 1
    23   13   33 1
    24   14   15 1
    25   14   34 1
    26   14   35 1
    27   15   19 1
    28   15   16 1
    29   16   17 1
    30   16   36 1
    31   16   37 1
    32   17   18 1
    33   17   38 1
    34   17   39 1
    35   18   23 ar
    36   18   19 ar
    37   19   20 ar
    38   20   21 ar
    39   20   40 1
    40   21   22 ar
    41   21   41 1
    42   22   23 ar
    43   22   42 1
    44   23   24 1
    45   24   25 1
    46   25   43 1
    47   25   44 1
    48   25   45 1
@<TRIPOS>MOLECULE
CHEMBL10804
   49    51     0     0     0
SMALL
USER_CHARGES

@<TRIPOS>ATOM
      1 C1         -0.0169    1.3931    0.0097 C.ar      1 <0>        -0.0268
      2 C2          1.1672    2.0959    0.0022 C.ar      1 <0>        -0.1560
      3 C3          2.3803    1.4174   -0.0131 C.ar      1 <0>         0.1366
      4 C4          2.4034    0.0276   -0.0207 C.ar      1 <0>        -0.2116
      5 C5          1.2236   -0.6825   -0.0133 C.ar      1 <0>        -0.0446
      6 C6          0.0021   -0.0041    0.0020 C.ar      1 <0>        -0.1410
      7 C7         -1.2649   -0.7613    0.0105 C.2       1 <0>         0.5462
      8 O1         -2.3268   -0.1694    0.0243 O.2       1 <0>        -0.5535
      9 N1         -1.2445   -2.1089    0.0031 N.am      1 <0>        -0.6763
     10 C8         -2.5020   -2.8605    0.0116 C.3       1 <0>         0.0736
     11 C9         -2.2631   -4.2476    0.6114 C.3       1 <0>        -0.0825
     12 C10        -1.8664   -4.1057    2.0823 C.3       1 <0>        -0.1771
     13 C11        -1.6311   -5.4720    2.6731 C.2       1 <0>         0.4909
     14 O2         -1.7679   -6.4669    1.9818 O.co2     1 <0>        -0.6975
     15 O3         -1.3038   -5.5824    3.8424 O.co2     1 <0>        -0.7196
     16 C12        -3.0108   -3.0044   -1.3997 C.2       1 <0>         0.4983
     17 O4         -2.2239   -3.0470   -2.3300 O.co2     1 <0>        -0.6990
     18 O5         -4.2092   -3.0781   -1.6111 O.co2     1 <0>        -0.7007
     19 O6          3.5451    2.1136   -0.0209 O.3       1 <0>        -0.3156
     20 C13         4.7551    1.3536   -0.0365 C.3       1 <0>         0.1204
     21 C14         5.9362    2.2896   -0.0433 C.ar      1 <0>         0.0531
     22 C15         5.7249    3.6679   -0.0285 C.ar      1 <0>         0.1639
     23 N2          6.7404    4.5052   -0.0336 N.ar      1 <0>        -0.4409
     24 C16         7.9874    4.0281   -0.0532 C.ar      1 <0>         0.3700
     25 C17         8.1964    2.6264   -0.0681 C.ar      1 <0>        -0.0868
     26 N3          7.1570    1.7981   -0.0576 N.ar      1 <0>        -0.3776
     27 C18         9.5775    2.1415   -0.0889 C.ar      1 <0>         0.5453
     28 N4         10.5479    3.0450   -0.0925 N.ar      1 <0>        -0.6301
     29 C19        10.2788    4.3467   -0.0777 C.ar      1 <0>         0.6369
     30 N5          9.0549    4.8360   -0.0587 N.ar      1 <0>        -0.6013
     31 N6         11.3381    5.2339   -0.0824 N.pl3     1 <0>        -0.8099
     32 N7          9.8593    0.7930   -0.1039 N.pl3     1 <0>        -0.7910
     33 H1         -0.9589    1.9210    0.0260 H         1 <0>         0.1434
     34 H2          1.1534    3.1758    0.0077 H         1 <0>         0.1347
     35 H3          3.3479   -0.4960   -0.0329 H         1 <0>         0.1320
     36 H4          1.2424   -1.7623   -0.0196 H         1 <0>         0.1343
     37 H5         -0.3973   -2.5811   -0.0078 H         1 <0>         0.3907
     38 H6         -3.2398   -2.3275    0.6112 H         1 <0>         0.0784
     39 H7         -3.1763   -4.8380    0.5367 H         1 <0>         0.0727
     40 H8         -1.4622   -4.7465    0.0656 H         1 <0>         0.0600
     41 H9         -0.9532   -3.5153    2.1570 H         1 <0>         0.0510
     42 H10        -2.6673   -3.6069    2.6281 H         1 <0>         0.0530
     43 H11         4.7981    0.7207    0.8499 H         1 <0>         0.0927
     44 H12         4.7808    0.7297   -0.9299 H         1 <0>         0.0925
     45 H13         4.7160    4.0529   -0.0130 H         1 <0>         0.1921
     46 H14        12.2492    4.9013   -0.0963 H         1 <0>         0.4153
     47 H15        11.1707    6.1893   -0.0719 H         1 <0>         0.4184
     48 H16         9.1362    0.1464   -0.1007 H         1 <0>         0.4277
     49 H17        10.7807    0.4902   -0.1176 H         1 <0>         0.4154
@<TRIPOS>BOND
     1    1    6 ar
     2    1    2 ar
     3    1   33 1
     4    2    3 ar
     5    2   34 1
     6    3    4 ar
     7    3   19 1
     8    4    5 ar
     9    4   35 1
    10    5    6 ar
    11    5   36 1
    12    6    7 1
    13    7    8 2
    14    7    9 am
    15    9   10 1
    16    9   37 1
    17   10   11 1
    18   10   16 1
    19   10   38 1
    20   11   12 1
    21   11   39 1
    22   11   40 1
    23   12   13 1
    24   12   41 1
    25   12   42 1
    26   13   14 2
    27   13   15 1
    28   16   17 2
    29   16   18 1
    30   19   20 1
    31   20   21 1
    32   20   43 1
    33   20   44 1
    34   21   26 ar
    35   21   22 ar
    36   22   23 ar
    37   22   45 1
    38   23   24 ar
    39   24   30 ar
    40   24   25 ar
    41   25   26 ar
    42   25   27 ar
    43   27   28 ar
    44   27   32 1
    45   28   29 ar
    46   29   30 ar
    47   29   31 1
    48   31   46 1
    49   31   47 1
    50   32   48 1
    51   32   49 1
@<TRIPOS>MOLECULE
CHEMBL10804__1
   49    51     0     0     0
SMALL
USER_CHARGES

@<TRIPOS>ATOM
      1 C1         -0.0169    1.3931    0.0097 C.ar      1 <0>        -0.0272
      2 C2          1.1672    2.0959    0.0022 C.ar      1 <0>        -0.1557
      3 C3          2.3803    1.4174   -0.0131 C.ar      1 <0>         0.1354
      4 C4          2.4034    0.0276   -0.0207 C.ar      1 <0>        -0.2116
      5 C5          1.2236   -0.6825   -0.0133 C.ar      1 <0>        -0.0456
      6 C6          0.0021   -0.0041    0.0020 C.ar      1 <0>        -0.1384
      7 C7         -1.2649   -0.7613    0.0105 C.2       1 <0>         0.5531
      8 O1         -2.3268   -0.1694    0.0243 O.2       1 <0>        -0.5550
      9 N1         -1.2445   -2.1089    0.0031 N.am      1 <0>        -0.6767
     10 C8         -2.5020   -2.8605    0.0116 C.3       1 <0>         0.0726
     11 C9         -2.2752   -4.2411   -0.6078 C.3       1 <0>        -0.0805
     12 C10        -1.9078   -4.0834   -2.0846 C.3       1 <0>        -0.1778
     13 C11        -1.6844   -5.4432   -2.6946 C.2       1 <0>         0.4907
     14 O2         -1.8076   -6.4455   -2.0115 O.co2     1 <0>        -0.6971
     15 O3         -1.3804   -5.5410   -3.8713 O.co2     1 <0>        -0.7203
     16 C12        -2.9826   -3.0196    1.4310 C.2       1 <0>         0.4956
     17 O4         -2.3349   -2.5487    2.3503 O.co2     1 <0>        -0.6971
     18 O5         -4.0193   -3.6191    1.6600 O.co2     1 <0>        -0.6998
     19 O6          3.5451    2.1136   -0.0209 O.3       1 <0>        -0.3157
     20 C13         4.7551    1.3536   -0.0365 C.3       1 <0>         0.1205
     21 C14         5.9362    2.2896   -0.0433 C.ar      1 <0>         0.0533
     22 C15         5.7249    3.6679   -0.0285 C.ar      1 <0>         0.1640
     23 N2          6.7404    4.5052   -0.0336 N.ar      1 <0>        -0.4409
     24 C16         7.9874    4.0281   -0.0532 C.ar      1 <0>         0.3699
     25 C17         8.1964    2.6264   -0.0681 C.ar      1 <0>        -0.0869
     26 N3          7.1570    1.7981   -0.0576 N.ar      1 <0>        -0.3777
     27 C18         9.5775    2.1415   -0.0889 C.ar      1 <0>         0.5452
     28 N4         10.5479    3.0450   -0.0925 N.ar      1 <0>        -0.6301
     29 C19        10.2788    4.3467   -0.0777 C.ar      1 <0>         0.6369
     30 N5          9.0549    4.8360   -0.0587 N.ar      1 <0>        -0.6012
     31 N6         11.3381    5.2339   -0.0824 N.pl3     1 <0>        -0.8100
     32 N7          9.8593    0.7930   -0.1039 N.pl3     1 <0>        -0.7911
     33 H1         -0.9589    1.9210    0.0260 H         1 <0>         0.1431
     34 H2          1.1534    3.1758    0.0077 H         1 <0>         0.1343
     35 H3          3.3479   -0.4960   -0.0329 H         1 <0>         0.1315
     36 H4          1.2424   -1.7623   -0.0196 H         1 <0>         0.1333
     37 H5         -0.3973   -2.5811   -0.0078 H         1 <0>         0.3885
     38 H6         -3.2516   -2.3212   -0.5676 H         1 <0>         0.0784
     39 H7         -1.4637   -4.7457   -0.0834 H         1 <0>         0.0548
     40 H8         -3.1868   -4.8323   -0.5213 H         1 <0>         0.0792
     41 H9         -2.7193   -3.5788   -2.6090 H         1 <0>         0.0525
     42 H10        -0.9962   -3.4921   -2.1711 H         1 <0>         0.0500
     43 H11         4.7981    0.7207    0.8499 H         1 <0>         0.0923
     44 H12         4.7808    0.7297   -0.9299 H         1 <0>         0.0925
     45 H13         4.7160    4.0529   -0.0130 H         1 <0>         0.1922
     46 H14        12.2492    4.9013   -0.0963 H         1 <0>         0.4153
     47 H15        11.1707    6.1893   -0.0719 H         1 <0>         0.4184
     48 H16         9.1362    0.1464   -0.1007 H         1 <0>         0.4276
     49 H17        10.7807    0.4902   -0.1176 H         1 <0>         0.4154
@<TRIPOS>BOND
     1    1    6 ar
     2    1    2 ar
     3    1   33 1
     4    2    3 ar
     5    2   34 1
     6    3    4 ar
     7    3   19 1
     8    4    5 ar
     9    4   35 1
    10    5    6 ar
    11    5   36 1
    12    6    7 1
    13    7    8 2
    14    7    9 am
    15    9   10 1
    16    9   37 1
    17   10   11 1
    18   10   16 1
    19   10   38 1
    20   11   12 1
    21   11   39 1
    22   11   40 1
    23   12   13 1
    24   12   41 1
    25   12   42 1
    26   13   14 2
    27   13   15 1
    28   16   17 2
    29   16   18 1
    30   19   20 1
    31   20   21 1
    32   20   43 1
    33   20   44 1
    34   21   26 ar
    35   21   22 ar
    36   22   23 ar
    37   22   45 1
    38   23   24 ar
    39   24   30 ar
    40   24   25 ar
    41   25   26 ar
    42   25   27 ar
    43   27   28 ar
    44   27   32 1
    45   28   29 ar
    46   29   30 ar
    47   29   31 1
    48   31   46 1
    49   31   47 1
    50   32   48 1
    51   32   49 1
@<TRIPOS>MOLECULE
CHEMBL120826
   44    47     0     0     0
SMALL
USER_CHARGES

@<TRIPOS>ATOM
      1 C1         -0.0167    1.3781    0.0096 C.ar      1 <0>        -0.1648
      2 C2          1.1736    2.0824    0.0020 C.ar      1 <0>        -0.0754
      3 C3          2.3771    1.4109   -0.0135 C.ar      1 <0>        -0.1776
      4 C4          2.4045    0.0144   -0.0213 C.ar      1 <0>         0.1890
      5 C5          1.2061   -0.6818   -0.0131 C.ar      1 <0>        -0.1701
      6 C6          0.0021   -0.0041    0.0020 C.ar      1 <0>        -0.0615
      7 C7          1.5104   -2.1630   -0.0232 C.3       1 <0>        -0.0859
      8 C8          3.0459   -2.2414   -0.0384 C.3       1 <0>         0.1205
      9 N1          3.5013   -0.8486   -0.0360 N.pl3     1 <0>        -0.6326
     10 C9          4.9034   -0.4240   -0.0482 C.3       1 <0>         0.1467
     11 C10         5.4061   -0.2831    1.3899 C.3       1 <0>        -0.1116
     12 C11         6.8415    0.2557    1.3836 C.3       1 <0>        -0.1142
     13 C12         7.2334    0.6069    2.8181 C.3       1 <0>        -0.1001
     14 C13         6.9519   -0.5495    3.7388 C.ar      1 <0>         0.2397
     15 C14         6.1093   -1.5790    3.3975 C.ar      1 <0>        -0.2198
     16 C15         5.9022   -2.6092    4.3235 C.ar      1 <0>         0.5310
     17 N2          6.5257   -2.5635    5.4950 N.ar      1 <0>        -0.5768
     18 C16         7.3344   -1.5556    5.7853 C.ar      1 <0>         0.6657
     19 N3          7.5452   -0.5688    4.9298 N.ar      1 <0>        -0.5758
     20 N4          7.9734   -1.5339    7.0127 N.pl3     1 <0>        -0.7924
     21 N5          5.0561   -3.6635    4.0209 N.pl3     1 <0>        -0.7782
     22 C17         5.4061   -1.6514    2.0705 C.3       1 <0>        -0.0689
     23 H1         -0.9584    1.9066    0.0259 H         1 <0>         0.1242
     24 H2          1.1599    3.1623    0.0080 H         1 <0>         0.1240
     25 H3          3.3030    1.9669   -0.0201 H         1 <0>         0.1145
     26 H4         -0.9265   -0.5555    0.0079 H         1 <0>         0.1213
     27 H5          1.1141   -2.6388    0.8738 H         1 <0>         0.0827
     28 H6          1.0969   -2.6301   -0.9170 H         1 <0>         0.0867
     29 H7          3.4069   -2.7589    0.8504 H         1 <0>         0.0584
     30 H8          3.3896   -2.7502   -0.9390 H         1 <0>         0.0697
     31 H9          5.5038   -1.1680   -0.5717 H         1 <0>         0.0822
     32 H10         4.9880    0.5355   -0.5584 H         1 <0>         0.0848
     33 H11         4.7577    0.3994    1.9394 H         1 <0>         0.0888
     34 H12         7.5171   -0.5064    0.9954 H         1 <0>         0.0838
     35 H13         6.8948    1.1484    0.7604 H         1 <0>         0.0991
     36 H14         8.2966    0.8448    2.8531 H         1 <0>         0.1119
     37 H15         6.6620    1.4755    3.1454 H         1 <0>         0.1198
     38 H16         7.8267   -2.2515    7.6486 H         1 <0>         0.4449
     39 H17         8.5681   -0.8012    7.2370 H         1 <0>         0.4303
     40 H18         4.6031   -3.6912    3.1636 H         1 <0>         0.4303
     41 H19         4.9166   -4.3741    4.6663 H         1 <0>         0.4287
     42 H20         4.3774   -1.9769    2.2251 H         1 <0>         0.0910
     43 H21         5.9164   -2.3718    1.4311 H         1 <0>         0.0954
     44 H22         8.1435    0.1542    5.1752 H         1 <0>         0.4405
@<TRIPOS>BOND
     1    1    6 ar
     2    1    2 ar
     3    1   23 1
     4    2    3 ar
     5    2   24 1
     6    3    4 ar
     7    3   25 1
     8    4    9 1
     9    4    5 ar
    10    5    6 ar
    11    5    7 1
    12    6   26 1
    13    7    8 1
    14    7   27 1
    15    7   28 1
    16    8    9 1
    17    8   29 1
    18    8   30 1
    19    9   10 1
    20   10   11 1
    21   10   31 1
    22   10   32 1
    23   11   22 1
    24   11   12 1
    25   11   33 1
    26   12   13 1
    27   12   34 1
    28   12   35 1
    29   13   14 1
    30   13   36 1
    31   13   37 1
    32   14   19 ar
    33   14   15 ar
    34   15   16 ar
    35   15   22 1
    36   16   17 ar
    37   16   21 1
    38   17   18 ar
    39   18   19 ar
    40   18   20 1
    41   19   44 1
    42   20   38 1
    43   20   39 1
    44   21   40 1
    45   21   41 1
    46   22   42 1
    47   22   43 1
@<TRIPOS>MOLECULE
CHEMBL120826__1
   44    47     0     0     0
SMALL
USER_CHARGES

@<TRIPOS>ATOM
      1 C1         -0.0167    1.3781    0.0096 C.ar      1 <0>        -0.1669
      2 C2          1.1736    2.0824    0.0020 C.ar      1 <0>        -0.0784
      3 C3          2.3771    1.4109   -0.0135 C.ar      1 <0>        -0.1916
      4 C4          2.4045    0.0144   -0.0213 C.ar      1 <0>         0.1921
      5 C5          1.2061   -0.6818   -0.0131 C.ar      1 <0>        -0.1673
      6 C6          0.0021   -0.0041    0.0020 C.ar      1 <0>        -0.0583
      7 C7          1.5104   -2.1630   -0.0232 C.3       1 <0>        -0.0872
      8 C8          3.0459   -2.2414   -0.0384 C.3       1 <0>         0.1202
      9 N1          3.5013   -0.8486   -0.0360 N.pl3     1 <0>        -0.6306
     10 C9          4.9034   -0.4240   -0.0482 C.3       1 <0>         0.1453
     11 C10         5.4061   -0.2831    1.3899 C.3       1 <0>        -0.1104
     12 C11         6.8993    0.0648    1.3821 C.3       1 <0>        -0.1144
     13 C12         7.4264   -0.0305    2.8131 C.3       1 <0>        -0.0991
     14 C13         6.5547    0.7621    3.7491 C.ar      1 <0>         0.2366
     15 C14         5.2812    1.1562    3.4190 C.ar      1 <0>        -0.2182
     16 C15         4.5414    1.8850    4.3588 C.ar      1 <0>         0.5308
     17 N2          5.0907    2.1760    5.5322 N.ar      1 <0>        -0.5771
     18 C16         6.3239    1.7819    5.8115 C.ar      1 <0>         0.6654
     19 N3          7.0430    1.0902    4.9428 N.ar      1 <0>        -0.5763
     20 N4          6.8733    2.1015    7.0409 N.pl3     1 <0>        -0.7932
     21 N5          3.2516    2.2980    4.0674 N.pl3     1 <0>        -0.7756
     22 C17         4.6501    0.8455    2.0900 C.3       1 <0>        -0.0690
     23 H1         -0.9584    1.9066    0.0259 H         1 <0>         0.1241
     24 H2          1.1599    3.1623    0.0080 H         1 <0>         0.1234
     25 H3          3.3030    1.9669   -0.0201 H         1 <0>         0.1142
     26 H4         -0.9265   -0.5555    0.0079 H         1 <0>         0.1220
     27 H5          1.1141   -2.6388    0.8738 H         1 <0>         0.0844
     28 H6          1.0969   -2.6301   -0.9170 H         1 <0>         0.0870
     29 H7          3.4069   -2.7589    0.8504 H         1 <0>         0.0658
     30 H8          3.3896   -2.7502   -0.9390 H         1 <0>         0.0701
     31 H9          5.5038   -1.1680   -0.5717 H         1 <0>         0.0871
     32 H10         4.9880    0.5355   -0.5584 H         1 <0>         0.0809
     33 H11         5.2476   -1.2184    1.9267 H         1 <0>         0.0872
     34 H12         7.4361   -0.6392    0.7463 H         1 <0>         0.0990
     35 H13         7.0370    1.0793    1.0079 H         1 <0>         0.0837
     36 H14         7.4342   -1.0748    3.1254 H         1 <0>         0.1189
     37 H15         8.4431    0.3608    2.8493 H         1 <0>         0.1116
     38 H16         6.3561    2.6085    7.6862 H         1 <0>         0.4447
     39 H17         7.7755    1.8185    7.2572 H         1 <0>         0.4299
     40 H18         2.8559    2.0827    3.2083 H         1 <0>         0.4327
     41 H19         2.7442    2.8025    4.7223 H         1 <0>         0.4283
     42 H20         4.6723    1.7370    1.4634 H         1 <0>         0.0956
     43 H21         3.6143    0.5434    2.2449 H         1 <0>         0.0927
     44 H22         7.9429    0.8170    5.1804 H         1 <0>         0.4400
@<TRIPOS>BOND
     1    1    6 ar
     2    1    2 ar
     3    1   23 1
     4    2    3 ar
     5    2   24 1
     6    3    4 ar
     7    3   25 1
     8    4    9 1
     9    4    5 ar
    10    5    6 ar
    11    5    7 1
    12    6   26 1
    13    7    8 1
    14    7   27 1
    15    7   28 1
    16    8    9 1
    17    8   29 1
    18    8   30 1
    19    9   10 1
    20   10   11 1
    21   10   31 1
    22   10   32 1
    23   11   22 1
    24   11   12 1
    25   11   33 1
    26   12   13 1
    27   12   34 1
    28   12   35 1
    29   13   14 1
    30   13   36 1
    31   13   37 1
    32   14   19 ar
    33   14   15 ar
    34   15   16 ar
    35   15   22 1
    36   16   17 ar
    37   16   21 1
    38   17   18 ar
    39   18   19 ar
    40   18   20 1
    41   19   44 1
    42   20   38 1
    43   20   39 1
    44   21   40 1
    45   21   41 1
    46   22   42 1
    47   22   43 1
@<TRIPOS>MOLECULE
CHEMBL284360
   68    71     0     0     0
SMALL
USER_CHARGES

@<TRIPOS>ATOM
      1 C1         -0.0178    1.4608    0.0101 C.3       1 <0>         0.0927
      2 N1          0.0021   -0.0041    0.0020 N.pl3     1 <0>        -0.6205
      3 C2          0.0241   -0.7433    1.2666 C.3       1 <0>         0.1838
      4 C3         -1.3889   -1.0161    1.7137 C.ar      1 <0>         0.0240
      5 C4         -1.9892   -2.2351    1.3999 C.ar      1 <0>         0.1546
      6 N2         -3.2219   -2.4965    1.7797 N.ar      1 <0>        -0.4365
      7 C5         -3.9051   -1.5830    2.4739 C.ar      1 <0>         0.3745
      8 C6         -3.2902   -0.3458    2.7901 C.ar      1 <0>        -0.0922
      9 N3         -2.0425   -0.1038    2.4012 N.ar      1 <0>        -0.3711
     10 C7         -4.0706    0.6301    3.5527 C.ar      1 <0>         0.5436
     11 N4         -5.3055    0.2953    3.9004 N.ar      1 <0>        -0.6287
     12 C8         -5.8196   -0.8850    3.5693 C.ar      1 <0>         0.6384
     13 N5         -5.1609   -1.7987    2.8845 N.ar      1 <0>        -0.5991
     14 N6         -7.1130   -1.1692    3.9639 N.pl3     1 <0>        -0.8079
     15 N7         -3.5402    1.8539    3.8976 N.pl3     1 <0>        -0.7937
     16 C9          0.0000   -0.6928   -1.2059 C.ar      1 <0>         0.2270
     17 C10         0.0132   -2.0849   -1.2118 C.ar      1 <0>        -0.2108
     18 C11         0.0112   -2.7693   -2.4056 C.ar      1 <0>        -0.0117
     19 C12        -0.0041   -2.0653   -3.6133 C.ar      1 <0>        -0.1714
     20 C13        -0.0173   -0.6674   -3.6040 C.ar      1 <0>        -0.0364
     21 C14        -0.0210    0.0112   -2.4068 C.ar      1 <0>        -0.2018
     22 C15        -0.0058   -2.7960   -4.8948 C.2       1 <0>         0.5593
     23 O1          0.0061   -4.0119   -4.9015 O.2       1 <0>        -0.5501
     24 N8         -0.0205   -2.1158   -6.0583 N.am      1 <0>        -0.6919
     25 C16        -0.0222   -2.8414   -7.3310 C.3       1 <0>         0.0757
     26 C17         0.5711   -1.9524   -8.4257 C.3       1 <0>        -0.0916
     27 C18         2.0446   -1.6789   -8.1177 C.3       1 <0>        -0.1375
     28 C19         2.6291   -0.8032   -9.1959 C.2       1 <0>         0.5131
     29 O2          1.9354   -0.4342  -10.1198 O.2       1 <0>        -0.5329
     30 N9          3.9227   -0.4301   -9.1336 N.am      1 <0>        -0.7339
     31 C20         4.4908    0.4211  -10.1818 C.3       1 <0>         0.1595
     32 C21         5.9422    0.6905   -9.8785 C.ar      1 <0>        -0.1051
     33 C22         6.2965    1.7851   -9.1120 C.ar      1 <0>        -0.1013
     34 C23         7.6278    2.0322   -8.8337 C.ar      1 <0>        -0.1226
     35 C24         8.6048    1.1845   -9.3215 C.ar      1 <0>        -0.1152
     36 C25         8.2504    0.0895  -10.0871 C.ar      1 <0>        -0.1222
     37 C26         6.9188   -0.1600  -10.3618 C.ar      1 <0>        -0.1009
     38 C27        -1.4367   -3.2117   -7.6962 C.2       1 <0>         0.4920
     39 O3         -2.3707   -2.7470   -7.0653 O.co2     1 <0>        -0.6857
     40 O4         -1.6469   -3.9759   -8.6226 O.co2     1 <0>        -0.6966
     41 H1          1.0048    1.8381    0.0023 H         1 <0>         0.0517
     42 H2         -0.5450    1.8219   -0.8730 H         1 <0>         0.0685
     43 H3         -0.5280    1.8123    0.9069 H         1 <0>         0.0687
     44 H4          0.5496   -1.6879    1.1262 H         1 <0>         0.1016
     45 H5          0.5371   -0.1514    2.0246 H         1 <0>         0.0969
     46 H6         -1.4361   -2.9733    0.8382 H         1 <0>         0.1796
     47 H7         -7.6209   -0.5150    4.4689 H         1 <0>         0.4159
     48 H8         -7.5132   -2.0229    3.7358 H         1 <0>         0.4199
     49 H9         -2.6346    2.0814    3.6347 H         1 <0>         0.4247
     50 H10        -4.0722    2.4880    4.4032 H         1 <0>         0.4150
     51 H11         0.0253   -2.6282   -0.2785 H         1 <0>         0.1238
     52 H12         0.0217   -3.8493   -2.4096 H         1 <0>         0.1360
     53 H13        -0.0287   -0.1208   -4.5353 H         1 <0>         0.1245
     54 H14        -0.0359    1.0910   -2.3989 H         1 <0>         0.1250
     55 H15        -0.0300   -1.1459   -6.0530 H         1 <0>         0.3877
     56 H16         0.5768   -3.7469   -7.2338 H         1 <0>         0.0845
     57 H17         0.4888   -2.4573   -9.3882 H         1 <0>         0.0883
     58 H18         0.0264   -1.0090   -8.4626 H         1 <0>         0.0685
     59 H19         2.1270   -1.1740   -7.1552 H         1 <0>         0.0902
     60 H20         2.5893   -2.6223   -8.0808 H         1 <0>         0.0936
     61 H21         4.4775   -0.7252   -8.3947 H         1 <0>         0.4006
     62 H22         4.4085   -0.0838  -11.1443 H         1 <0>         0.0748
     63 H23         3.9461    1.3646  -10.2187 H         1 <0>         0.0745
     64 H24         5.5332    2.4473   -8.7310 H         1 <0>         0.1242
     65 H25         7.9046    2.8877   -8.2355 H         1 <0>         0.1230
     66 H26         9.6449    1.3780   -9.1046 H         1 <0>         0.1217
     67 H27         9.0137   -0.5725  -10.4685 H         1 <0>         0.1233
     68 H28         6.6417   -1.0176  -10.9569 H         1 <0>         0.1247
@<TRIPOS>BOND
     1    1    2 1
     2    1   41 1
     3    1   42 1
     4    1   43 1
     5    2    3 1
     6    2   16 1
     7    3    4 1
     8    3   44 1
     9    3   45 1
    10    4    9 ar
    11    4    5 ar
    12    5    6 ar
    13    5   46 1
    14    6    7 ar
    15    7   13 ar
    16    7    8 ar
    17    8    9 ar
    18    8   10 ar
    19   10   11 ar
    20   10   15 1
    21   11   12 ar
    22   12   13 ar
    23   12   14 1
    24   14   47 1
    25   14   48 1
    26   15   49 1
    27   15   50 1
    28   16   21 ar
    29   16   17 ar
    30   17   18 ar
    31   17   51 1
    32   18   19 ar
    33   18   52 1
    34   19   20 ar
    35   19   22 1
    36   20   21 ar
    37   20   53 1
    38   21   54 1
    39   22   23 2
    40   22   24 am
    41   24   25 1
    42   24   55 1
    43   25   26 1
    44   25   38 1
    45   25   56 1
    46   26   27 1
    47   26   57 1
    48   26   58 1
    49   27   28 1
    50   27   59 1
    51   27   60 1
    52   28   29 2
    53   28   30 am
    54   30   31 1
    55   30   61 1
    56   31   32 1
    57   31   62 1
    58   31   63 1
    59   32   37 ar
    60   32   33 ar
    61   33   34 ar
    62   33   64 1
    63   34   35 ar
    64   34   65 1
    65   35   36 ar
    66   35   66 1
    67   36   37 ar
    68   36   67 1
    69   37   68 1
    70   38   39 2
    71   38   40 1
@<TRIPOS>MOLECULE
CHEMBL284360__1
   68    71     0     0     0
SMALL
USER_CHARGES

@<TRIPOS>ATOM
      1 C1         -0.0178    1.4608    0.0101 C.3       1 <0>         0.0925
      2 N1          0.0021   -0.0041    0.0020 N.pl3     1 <0>        -0.6202
      3 C2          0.0241   -0.7433    1.2666 C.3       1 <0>         0.1825
      4 C3         -1.3889   -1.0161    1.7137 C.ar      1 <0>         0.0261
      5 C4         -1.9892   -2.2351    1.3999 C.ar      1 <0>         0.1544
      6 N2         -3.2219   -2.4965    1.7797 N.ar      1 <0>        -0.4378
      7 C5         -3.9051   -1.5830    2.4739 C.ar      1 <0>         0.3736
      8 C6         -3.2902   -0.3458    2.7901 C.ar      1 <0>        -0.0919
      9 N3         -2.0425   -0.1038    2.4012 N.ar      1 <0>        -0.3709
     10 C7         -4.0706    0.6301    3.5527 C.ar      1 <0>         0.5437
     11 N4         -5.3055    0.2953    3.9004 N.ar      1 <0>        -0.6291
     12 C8         -5.8196   -0.8850    3.5693 C.ar      1 <0>         0.6384
     13 N5         -5.1609   -1.7987    2.8845 N.ar      1 <0>        -0.6003
     14 N6         -7.1130   -1.1692    3.9639 N.pl3     1 <0>        -0.8082
     15 N7         -3.5402    1.8539    3.8976 N.pl3     1 <0>        -0.7932
     16 C9          0.0000   -0.6928   -1.2059 C.ar      1 <0>         0.2278
     17 C10         0.0132   -2.0849   -1.2118 C.ar      1 <0>        -0.2110
     18 C11         0.0112   -2.7693   -2.4056 C.ar      1 <0>        -0.0113
     19 C12        -0.0041   -2.0653   -3.6133 C.ar      1 <0>        -0.1733
     20 C13        -0.0173   -0.6674   -3.6040 C.ar      1 <0>        -0.0358
     21 C14        -0.0210    0.0112   -2.4068 C.ar      1 <0>        -0.2018
     22 C15        -0.0058   -2.7960   -4.8948 C.2       1 <0>         0.5548
     23 O1          0.0061   -4.0119   -4.9015 O.2       1 <0>        -0.5480
     24 N8         -0.0205   -2.1158   -6.0583 N.am      1 <0>        -0.6926
     25 C16        -0.0222   -2.8414   -7.3310 C.3       1 <0>         0.0765
     26 C17        -0.6480   -1.9644   -8.4172 C.3       1 <0>        -0.0927
     27 C18        -2.1222   -1.7198   -8.0888 C.3       1 <0>        -0.1376
     28 C19        -2.7386   -0.8559   -9.1588 C.2       1 <0>         0.5134
     29 O2         -2.0651   -0.4735  -10.0921 O.2       1 <0>        -0.5332
     30 N9         -4.0383   -0.5082   -9.0785 N.am      1 <0>        -0.7340
     31 C20        -4.6375    0.3316  -10.1186 C.3       1 <0>         0.1596
     32 C21        -6.0895    0.5725   -9.7951 C.ar      1 <0>        -0.1053
     33 C22        -7.0553   -0.3002  -10.2604 C.ar      1 <0>        -0.1008
     34 C23        -8.3872   -0.0792   -9.9636 C.ar      1 <0>        -0.1221
     35 C24        -8.7533    1.0143   -9.2013 C.ar      1 <0>        -0.1151
     36 C25        -7.7874    1.8865   -8.7353 C.ar      1 <0>        -0.1228
     37 C26        -6.4551    1.6631   -9.0285 C.ar      1 <0>        -0.1013
     38 C27         1.3940   -3.1839   -7.7158 C.2       1 <0>         0.4936
     39 O3          1.6222   -4.1867   -8.3707 O.co2     1 <0>        -0.6939
     40 O4          2.3115   -2.4583   -7.3723 O.co2     1 <0>        -0.6894
     41 H1          1.0048    1.8381    0.0023 H         1 <0>         0.0528
     42 H2         -0.5450    1.8219   -0.8730 H         1 <0>         0.0682
     43 H3         -0.5280    1.8123    0.9069 H         1 <0>         0.0686
     44 H4          0.5496   -1.6879    1.1262 H         1 <0>         0.1023
     45 H5          0.5371   -0.1514    2.0246 H         1 <0>         0.0975
     46 H6         -1.4361   -2.9733    0.8382 H         1 <0>         0.1802
     47 H7         -7.6209   -0.5150    4.4689 H         1 <0>         0.4160
     48 H8         -7.5132   -2.0229    3.7358 H         1 <0>         0.4196
     49 H9         -2.6346    2.0814    3.6347 H         1 <0>         0.4251
     50 H10        -4.0722    2.4880    4.4032 H         1 <0>         0.4152
     51 H11         0.0253   -2.6282   -0.2785 H         1 <0>         0.1240
     52 H12         0.0217   -3.8493   -2.4096 H         1 <0>         0.1363
     53 H13        -0.0287   -0.1208   -4.5353 H         1 <0>         0.1252
     54 H14        -0.0359    1.0910   -2.3989 H         1 <0>         0.1254
     55 H15        -0.0300   -1.1459   -6.0530 H         1 <0>         0.3891
     56 H16        -0.6020   -3.7584   -7.2256 H         1 <0>         0.0841
     57 H17        -0.1225   -1.0104   -8.4615 H         1 <0>         0.0722
     58 H18        -0.5691   -2.4677   -9.3808 H         1 <0>         0.0841
     59 H19        -2.6477   -2.6737   -8.0445 H         1 <0>         0.0938
     60 H20        -2.2011   -1.2164   -7.1252 H         1 <0>         0.0904
     61 H21        -4.5769   -0.8141   -8.3320 H         1 <0>         0.4007
     62 H22        -4.1120    1.2855  -10.1629 H         1 <0>         0.0745
     63 H23        -4.5586   -0.1718  -11.0822 H         1 <0>         0.0750
     64 H24        -6.7693   -1.1546  -10.8559 H         1 <0>         0.1248
     65 H25        -9.1418   -0.7607  -10.3277 H         1 <0>         0.1234
     66 H26        -9.7940    1.1873   -8.9701 H         1 <0>         0.1217
     67 H27        -8.0734    2.7410   -8.1400 H         1 <0>         0.1228
     68 H28        -5.7001    2.3425   -8.6613 H         1 <0>         0.1240
@<TRIPOS>BOND
     1    1    2 1
     2    1   41 1
     3    1   42 1
     4    1   43 1
     5    2    3 1
     6    2   16 1
     7    3    4 1
     8    3   44 1
     9    3   45 1
    10    4    9 ar
    11    4    5 ar
    12    5    6 ar
    13    5   46 1
    14    6    7 ar
    15    7   13 ar
    16    7    8 ar
    17    8    9 ar
    18    8   10 ar
    19   10   11 ar
    20   10   15 1
    21   11   12 ar
    22   12   13 ar
    23   12   14 1
    24   14   47 1
    25   14   48 1
    26   15   49 1
    27   15   50 1
    28   16   21 ar
    29   16   17 ar
    30   17   18 ar
    31   17   51 1
    32   18   19 ar
    33   18   52 1
    34   19   20 ar
    35   19   22 1
    36   20   21 ar
    37   20   53 1
    38   21   54 1
    39   22   23 2
    40   22   24 am
    41   24   25 1
    42   24   55 1
    43   25   26 1
    44   25   38 1
    45   25   56 1
    46   26   27 1
    47   26   57 1
    48   26   58 1
    49   27   28 1
    50   27   59 1
    51   27   60 1
    52   28   29 2
    53   28   30 am
    54   30   31 1
    55   30   61 1
    56   31   32 1
    57   31   62 1
    58   31   63 1
    59   32   37 ar
    60   32   33 ar
    61   33   34 ar
    62   33   64 1
    63   34   35 ar
    64   34   65 1
    65   35   36 ar
    66   35   66 1
    67   36   37 ar
    68   36   67 1
    69   37   68 1
    70   38   39 2
    71   38   40 1
@<TRIPOS>MOLECULE
CHEMBL278515
   53    55     0     0     0
SMALL
USER_CHARGES

@<TRIPOS>ATOM
      1 C1         -0.0403    1.4615    0.1245 C.3       1 <0>         0.0870
      2 N1         -0.0156    0.0020    0.0007 N.pl3     1 <0>        -0.6341
      3 C2          0.0346   -0.8344    1.2024 C.3       1 <0>         0.1837
      4 C3         -1.3636   -1.0550    1.7197 C.2       1 <0>        -0.1358
      5 C4         -2.5075   -0.6588    1.1444 C.2       1 <0>         0.0416
      6 O1         -3.5581   -1.0360    1.8975 O.3       1 <0>        -0.1449
      7 C5         -3.1508   -1.6937    2.9959 C.ar      1 <0>         0.3162
      8 C6         -1.7479   -1.7514    2.9500 C.ar      1 <0>        -0.2562
      9 C7         -1.0603   -2.3970    3.9872 C.ar      1 <0>         0.5791
     10 N2         -1.7678   -2.9342    4.9768 N.ar      1 <0>        -0.5782
     11 C8         -3.0925   -2.8616    4.9834 C.ar      1 <0>         0.6959
     12 N3         -3.7765   -2.2546    4.0273 N.ar      1 <0>        -0.5496
     13 N4         -3.7855   -3.4361    6.0355 N.pl3     1 <0>        -0.7871
     14 N5          0.3206   -2.4737    3.9813 N.pl3     1 <0>        -0.7688
     15 C9         -0.0399   -0.5895   -1.2575 C.ar      1 <0>         0.1980
     16 C10        -0.1445   -1.9730   -1.3728 C.ar      1 <0>        -0.2027
     17 C11        -0.1687   -2.5613   -2.6165 C.ar      1 <0>        -0.0217
     18 C12        -0.0882   -1.7683   -3.7650 C.ar      1 <0>        -0.1429
     19 C13         0.0167   -0.3794   -3.6459 C.ar      1 <0>        -0.0377
     20 C14         0.0347    0.2034   -2.3994 C.ar      1 <0>        -0.1867
     21 C15        -0.1134   -2.3959   -5.0998 C.2       1 <0>         0.5477
     22 O2         -0.2043   -3.6042   -5.2019 O.2       1 <0>        -0.5585
     23 N6         -0.0357   -1.6300   -6.2061 N.am      1 <0>        -0.6731
     24 C16        -0.0608   -2.2533   -7.5317 C.3       1 <0>         0.0726
     25 C17         0.6382   -1.3379   -8.5389 C.3       1 <0>        -0.0823
     26 C18         2.1197   -1.2176   -8.1761 C.3       1 <0>        -0.1767
     27 C19         2.8081   -0.3160   -9.1682 C.2       1 <0>         0.4899
     28 O3          2.1728    0.1840  -10.0808 O.co2     1 <0>        -0.6957
     29 O4          4.0005   -0.0865   -9.0582 O.co2     1 <0>        -0.7190
     30 C20        -1.4899   -2.4704   -7.9577 C.2       1 <0>         0.4974
     31 O5         -2.3997   -1.9761   -7.3140 O.co2     1 <0>        -0.7007
     32 O6         -1.7362   -3.1404   -8.9461 O.co2     1 <0>        -0.6973
     33 H1          0.9806    1.8433    0.1261 H         1 <0>         0.0566
     34 H2         -0.5866    1.8883   -0.7167 H         1 <0>         0.0788
     35 H3         -0.5334    1.7388    1.0562 H         1 <0>         0.0628
     36 H4          0.4873   -1.7953    0.9577 H         1 <0>         0.1053
     37 H5          0.6305   -0.3362    1.9671 H         1 <0>         0.0945
     38 H6         -2.5764   -0.1162    0.2132 H         1 <0>         0.2406
     39 H7         -3.3021   -3.8809    6.7492 H         1 <0>         0.4474
     40 H8         -4.7543   -3.3939    6.0588 H         1 <0>         0.4311
     41 H9          0.8214   -2.1432    3.2191 H         1 <0>         0.4324
     42 H10         0.7883   -2.8581    4.7392 H         1 <0>         0.4306
     43 H11        -0.2063   -2.5851   -0.4852 H         1 <0>         0.1168
     44 H12        -0.2495   -3.6347   -2.7053 H         1 <0>         0.1353
     45 H13         0.0795    0.2359   -4.5312 H         1 <0>         0.1337
     46 H14         0.1110    1.2767   -2.3068 H         1 <0>         0.1285
     47 H15         0.0368   -0.6662   -6.1246 H         1 <0>         0.3891
     48 H16         0.4563   -3.2120   -7.4922 H         1 <0>         0.0789
     49 H17         0.5422   -1.7587   -9.5398 H         1 <0>         0.0785
     50 H18         0.1767   -0.3508   -8.5139 H         1 <0>         0.0568
     51 H19         2.2157   -0.7968   -7.1752 H         1 <0>         0.0489
     52 H20         2.5812   -2.2047   -8.2010 H         1 <0>         0.0527
     53 H21        -4.7451   -2.2274    4.0734 H         1 <0>         0.4418
@<TRIPOS>BOND
     1    1    2 1
     2    1   33 1
     3    1   34 1
     4    1   35 1
     5    2    3 1
     6    2   15 1
     7    3    4 1
     8    3   36 1
     9    3   37 1
    10    4    8 1
    11    4    5 2
    12    5    6 1
    13    5   38 1
    14    6    7 1
    15    7   12 ar
    16    7    8 ar
    17    8    9 ar
    18    9   10 ar
    19    9   14 1
    20   10   11 ar
    21   11   12 ar
    22   11   13 1
    23   12   53 1
    24   13   39 1
    25   13   40 1
    26   14   41 1
    27   14   42 1
    28   15   20 ar
    29   15   16 ar
    30   16   17 ar
    31   16   43 1
    32   17   18 ar
    33   17   44 1
    34   18   19 ar
    35   18   21 1
    36   19   20 ar
    37   19   45 1
    38   20   46 1
    39   21   22 2
    40   21   23 am
    41   23   24 1
    42   23   47 1
    43   24   25 1
    44   24   30 1
    45   24   48 1
    46   25   26 1
    47   25   49 1
    48   25   50 1
    49   26   27 1
    50   26   51 1
    51   26   52 1
    52   27   28 2
    53   27   29 1
    54   30   31 2
    55   30   32 1
@<TRIPOS>MOLECULE
CHEMBL278515__1
   52    54     0     0     0
SMALL
USER_CHARGES

@<TRIPOS>ATOM
      1 C1         -0.0403    1.4615    0.1245 C.3       1 <0>         0.0908
      2 N1         -0.0156    0.0020    0.0007 N.pl3     1 <0>        -0.6312
      3 C2          0.0346   -0.8344    1.2024 C.3       1 <0>         0.1932
      4 C3         -1.3636   -1.0550    1.7197 C.2       1 <0>        -0.1568
      5 C4         -2.5075   -0.6588    1.1444 C.2       1 <0>         0.0072
      6 O1         -3.5581   -1.0360    1.8975 O.3       1 <0>        -0.1768
      7 C5         -3.1508   -1.6937    2.9959 C.ar      1 <0>         0.3654
      8 C6         -1.7479   -1.7514    2.9500 C.ar      1 <0>        -0.3263
      9 C7         -1.0603   -2.3970    3.9872 C.ar      1 <0>         0.5311
     10 N2         -1.7678   -2.9342    4.9768 N.ar      1 <0>        -0.6315
     11 C8         -3.0925   -2.8616    4.9834 C.ar      1 <0>         0.6324
     12 N3         -3.7765   -2.2546    4.0273 N.ar      1 <0>        -0.5974
     13 N4         -3.7855   -3.4361    6.0355 N.pl3     1 <0>        -0.8164
     14 N5          0.3206   -2.4737    3.9813 N.pl3     1 <0>        -0.8249
     15 C9         -0.0399   -0.5895   -1.2575 C.ar      1 <0>         0.2140
     16 C10        -0.1445   -1.9730   -1.3728 C.ar      1 <0>        -0.2021
     17 C11        -0.1687   -2.5613   -2.6165 C.ar      1 <0>        -0.0187
     18 C12        -0.0882   -1.7683   -3.7650 C.ar      1 <0>        -0.1588
     19 C13         0.0167   -0.3794   -3.6459 C.ar      1 <0>        -0.0380
     20 C14         0.0347    0.2034   -2.3994 C.ar      1 <0>        -0.1960
     21 C15        -0.1134   -2.3959   -5.0998 C.2       1 <0>         0.5481
     22 O2         -0.2043   -3.6042   -5.2019 O.2       1 <0>        -0.5589
     23 N6         -0.0357   -1.6300   -6.2061 N.am      1 <0>        -0.6782
     24 C16        -0.0608   -2.2533   -7.5317 C.3       1 <0>         0.0744
     25 C17         0.6382   -1.3379   -8.5389 C.3       1 <0>        -0.0823
     26 C18         2.1197   -1.2176   -8.1761 C.3       1 <0>        -0.1767
     27 C19         2.8081   -0.3160   -9.1682 C.2       1 <0>         0.4910
     28 O3          2.1728    0.1840  -10.0808 O.co2     1 <0>        -0.6976
     29 O4          4.0005   -0.0865   -9.0582 O.co2     1 <0>        -0.7202
     30 C20        -1.4899   -2.4704   -7.9577 C.2       1 <0>         0.4982
     31 O5         -2.3637   -1.7145   -7.5684 O.co2     1 <0>        -0.6990
     32 O6         -1.7723   -3.4021   -8.6917 O.co2     1 <0>        -0.7022
     33 H1          0.9806    1.8433    0.1261 H         1 <0>         0.0505
     34 H2         -0.5866    1.8883   -0.7167 H         1 <0>         0.0737
     35 H3         -0.5334    1.7388    1.0562 H         1 <0>         0.0639
     36 H4          0.4873   -1.7953    0.9577 H         1 <0>         0.0931
     37 H5          0.6305   -0.3362    1.9671 H         1 <0>         0.0833
     38 H6         -2.5764   -0.1162    0.2132 H         1 <0>         0.2132
     39 H7         -3.3021   -3.8809    6.7492 H         1 <0>         0.4157
     40 H8         -4.7543   -3.3939    6.0588 H         1 <0>         0.4158
     41 H9          0.8214   -2.1432    3.2191 H         1 <0>         0.4133
     42 H10         0.7883   -2.8581    4.7392 H         1 <0>         0.4093
     43 H11        -0.2063   -2.5851   -0.4852 H         1 <0>         0.1209
     44 H12        -0.2495   -3.6347   -2.7053 H         1 <0>         0.1330
     45 H13         0.0795    0.2359   -4.5312 H         1 <0>         0.1299
     46 H14         0.1110    1.2767   -2.3068 H         1 <0>         0.1259
     47 H15         0.0368   -0.6662   -6.1246 H         1 <0>         0.3902
     48 H16         0.4563   -3.2120   -7.4922 H         1 <0>         0.0770
     49 H17         0.5422   -1.7587   -9.5398 H         1 <0>         0.0719
     50 H18         0.1767   -0.3508   -8.5139 H         1 <0>         0.0598
     51 H19         2.2157   -0.7968   -7.1752 H         1 <0>         0.0513
     52 H20         2.5812   -2.2047   -8.2010 H         1 <0>         0.0525
@<TRIPOS>BOND
     1    1    2 1
     2    1   33 1
     3    1   34 1
     4    1   35 1
     5    2    3 1
     6    2   15 1
     7    3    4 1
     8    3   36 1
     9    3   37 1
    10    4    8 1
    11    4    5 2
    12    5    6 1
    13    5   38 1
    14    6    7 1
    15    7   12 ar
    16    7    8 ar
    17    8    9 ar
    18    9   10 ar
    19    9   14 1
    20   10   11 ar
    21   11   12 ar
    22   11   13 1
    23   13   39 1
    24   13   40 1
    25   14   41 1
    26   14   42 1
    27   15   20 ar
    28   15   16 ar
    29   16   17 ar
    30   16   43 1
    31   17   18 ar
    32   17   44 1
    33   18   19 ar
    34   18   21 1
    35   19   20 ar
    36   19   45 1
    37   20   46 1
    38   21   22 2
    39   21   23 am
    40   23   24 1
    41   23   47 1
    42   24   25 1
    43   24   30 1
    44   24   48 1
    45   25   26 1
    46   25   49 1
    47   25   50 1
    48   26   27 1
    49   26   51 1
    50   26   52 1
    51   27   28 2
    52   27   29 1
    53   30   31 2
    54   30   32 1
@<TRIPOS>MOLECULE
CHEMBL278515__2
   53    55     0     0     0
SMALL
USER_CHARGES

@<TRIPOS>ATOM
      1 C1         -0.0403    1.4615    0.1245 C.3       1 <0>         0.0868
      2 N1         -0.0156    0.0020    0.0007 N.pl3     1 <0>        -0.6339
      3 C2          0.0346   -0.8344    1.2024 C.3       1 <0>         0.1834
      4 C3         -1.3636   -1.0550    1.7197 C.2       1 <0>        -0.1355
      5 C4         -2.5075   -0.6588    1.1444 C.2       1 <0>         0.0411
      6 O1         -3.5581   -1.0360    1.8975 O.3       1 <0>        -0.1450
      7 C5         -3.1508   -1.6937    2.9959 C.ar      1 <0>         0.3163
      8 C6         -1.7479   -1.7514    2.9500 C.ar      1 <0>        -0.2562
      9 C7         -1.0603   -2.3970    3.9872 C.ar      1 <0>         0.5791
     10 N2         -1.7678   -2.9342    4.9768 N.ar      1 <0>        -0.5782
     11 C8         -3.0925   -2.8616    4.9834 C.ar      1 <0>         0.6959
     12 N3         -3.7765   -2.2546    4.0273 N.ar      1 <0>        -0.5497
     13 N4         -3.7855   -3.4361    6.0355 N.pl3     1 <0>        -0.7870
     14 N5          0.3206   -2.4737    3.9813 N.pl3     1 <0>        -0.7687
     15 C9         -0.0399   -0.5895   -1.2575 C.ar      1 <0>         0.1988
     16 C10        -0.1445   -1.9730   -1.3728 C.ar      1 <0>        -0.2029
     17 C11        -0.1687   -2.5613   -2.6165 C.ar      1 <0>        -0.0214
     18 C12        -0.0882   -1.7683   -3.7650 C.ar      1 <0>        -0.1449
     19 C13         0.0167   -0.3794   -3.6459 C.ar      1 <0>        -0.0372
     20 C14         0.0347    0.2034   -2.3994 C.ar      1 <0>        -0.1867
     21 C15        -0.1134   -2.3959   -5.0998 C.2       1 <0>         0.5429
     22 O2         -0.2043   -3.6042   -5.2019 O.2       1 <0>        -0.5562
     23 N6         -0.0357   -1.6300   -6.2061 N.am      1 <0>        -0.6738
     24 C16        -0.0608   -2.2533   -7.5317 C.3       1 <0>         0.0736
     25 C17        -0.5773   -1.2447   -8.5597 C.3       1 <0>        -0.0838
     26 C18        -2.0347   -0.8990   -8.2474 C.3       1 <0>        -0.1759
     27 C19        -2.5434    0.0944   -9.2600 C.2       1 <0>         0.4901
     28 O3         -1.8085    0.4893  -10.1490 O.co2     1 <0>        -0.6951
     29 O4         -3.6899    0.5032   -9.1901 O.co2     1 <0>        -0.7197
     30 C20         1.3322   -2.6868   -7.9093 C.2       1 <0>         0.4978
     31 O5          1.4942   -3.6526   -8.6357 O.co2     1 <0>        -0.6983
     32 O6          2.2972   -2.0719   -7.4885 O.co2     1 <0>        -0.6993
     33 H1          0.9806    1.8433    0.1261 H         1 <0>         0.0565
     34 H2         -0.5866    1.8883   -0.7167 H         1 <0>         0.0792
     35 H3         -0.5334    1.7388    1.0562 H         1 <0>         0.0630
     36 H4          0.4873   -1.7953    0.9577 H         1 <0>         0.1054
     37 H5          0.6305   -0.3362    1.9671 H         1 <0>         0.0946
     38 H6         -2.5764   -0.1162    0.2132 H         1 <0>         0.2406
     39 H7         -3.3021   -3.8809    6.7492 H         1 <0>         0.4474
     40 H8         -4.7543   -3.3939    6.0588 H         1 <0>         0.4311
     41 H9          0.8214   -2.1432    3.2191 H         1 <0>         0.4324
     42 H10         0.7883   -2.8581    4.7392 H         1 <0>         0.4307
     43 H11        -0.2063   -2.5851   -0.4852 H         1 <0>         0.1170
     44 H12        -0.2495   -3.6347   -2.7053 H         1 <0>         0.1355
     45 H13         0.0795    0.2359   -4.5312 H         1 <0>         0.1343
     46 H14         0.1110    1.2767   -2.3068 H         1 <0>         0.1289
     47 H15         0.0368   -0.6662   -6.1246 H         1 <0>         0.3905
     48 H16        -0.7190   -3.1219   -7.5124 H         1 <0>         0.0783
     49 H17         0.0281   -0.3394   -8.5165 H         1 <0>         0.0607
     50 H18        -0.5125   -1.6778   -9.5579 H         1 <0>         0.0742
     51 H19        -2.6401   -1.8044   -8.2906 H         1 <0>         0.0524
     52 H20        -2.0994   -0.4659   -7.2492 H         1 <0>         0.0490
     53 H21        -4.7451   -2.2274    4.0734 H         1 <0>         0.4418
@<TRIPOS>BOND
     1    1    2 1
     2    1   33 1
     3    1   34 1
     4    1   35 1
     5    2    3 1
     6    2   15 1
     7    3    4 1
     8    3   36 1
     9    3   37 1
    10    4    8 1
    11    4    5 2
    12    5    6 1
    13    5   38 1
    14    6    7 1
    15    7   12 ar
    16    7    8 ar
    17    8    9 ar
    18    9   10 ar
    19    9   14 1
    20   10   11 ar
    21   11   12 ar
    22   11   13 1
    23   12   53 1
    24   13   39 1
    25   13   40 1
    26   14   41 1
    27   14   42 1
    28   15   20 ar
    29   15   16 ar
    30   16   17 ar
    31   16   43 1
    32   17   18 ar
    33   17   44 1
    34   18   19 ar
    35   18   21 1
    36   19   20 ar
    37   19   45 1
    38   20   46 1
    39   21   22 2
    40   21   23 am
    41   23   24 1
    42   23   47 1
    43   24   25 1
    44   24   30 1
    45   24   48 1
    46   25   26 1
    47   25   49 1
    48   25   50 1
    49   26   27 1
    50   26   51 1
    51   26   52 1
    52   27   28 2
    53   27   29 1
    54   30   31 2
    55   30   32 1
@<TRIPOS>MOLECULE
CHEMBL278515__3
   52    54     0     0     0
SMALL
USER_CHARGES

@<TRIPOS>ATOM
      1 C1         -0.0403    1.4615    0.1245 C.3       1 <0>         0.0910
      2 N1         -0.0156    0.0020    0.0007 N.pl3     1 <0>        -0.6314
      3 C2          0.0346   -0.8344    1.2024 C.3       1 <0>         0.1930
      4 C3         -1.3636   -1.0550    1.7197 C.2       1 <0>        -0.1562
      5 C4         -2.5075   -0.6588    1.1444 C.2       1 <0>         0.0068
      6 O1         -3.5581   -1.0360    1.8975 O.3       1 <0>        -0.1769
      7 C5         -3.1508   -1.6937    2.9959 C.ar      1 <0>         0.3654
      8 C6         -1.7479   -1.7514    2.9500 C.ar      1 <0>        -0.3266
      9 C7         -1.0603   -2.3970    3.9872 C.ar      1 <0>         0.5311
     10 N2         -1.7678   -2.9342    4.9768 N.ar      1 <0>        -0.6316
     11 C8         -3.0925   -2.8616    4.9834 C.ar      1 <0>         0.6324
     12 N3         -3.7765   -2.2546    4.0273 N.ar      1 <0>        -0.5975
     13 N4         -3.7855   -3.4361    6.0355 N.pl3     1 <0>        -0.8164
     14 N5          0.3206   -2.4737    3.9813 N.pl3     1 <0>        -0.8248
     15 C9         -0.0399   -0.5895   -1.2575 C.ar      1 <0>         0.2130
     16 C10        -0.1445   -1.9730   -1.3728 C.ar      1 <0>        -0.2018
     17 C11        -0.1687   -2.5613   -2.6165 C.ar      1 <0>        -0.0191
     18 C12        -0.0882   -1.7683   -3.7650 C.ar      1 <0>        -0.1561
     19 C13         0.0167   -0.3794   -3.6459 C.ar      1 <0>        -0.0390
     20 C14         0.0347    0.2034   -2.3994 C.ar      1 <0>        -0.1961
     21 C15        -0.1134   -2.3959   -5.0998 C.2       1 <0>         0.5550
     22 O2         -0.2043   -3.6042   -5.2019 O.2       1 <0>        -0.5604
     23 N6         -0.0357   -1.6300   -6.2061 N.am      1 <0>        -0.6787
     24 C16        -0.0608   -2.2533   -7.5317 C.3       1 <0>         0.0733
     25 C17        -0.5773   -1.2447   -8.5597 C.3       1 <0>        -0.0803
     26 C18        -2.0347   -0.8990   -8.2474 C.3       1 <0>        -0.1776
     27 C19        -2.5434    0.0944   -9.2600 C.2       1 <0>         0.4910
     28 O3         -1.8085    0.4893  -10.1490 O.co2     1 <0>        -0.6974
     29 O4         -3.6899    0.5032   -9.1901 O.co2     1 <0>        -0.7206
     30 C20         1.3322   -2.6868   -7.9093 C.2       1 <0>         0.4956
     31 O5          2.2599   -2.4932   -7.1423 O.co2     1 <0>        -0.6973
     32 O6          1.5315   -3.2313   -8.9819 O.co2     1 <0>        -0.7012
     33 H1          0.9806    1.8433    0.1261 H         1 <0>         0.0500
     34 H2         -0.5866    1.8883   -0.7167 H         1 <0>         0.0737
     35 H3         -0.5334    1.7388    1.0562 H         1 <0>         0.0637
     36 H4          0.4873   -1.7953    0.9577 H         1 <0>         0.0932
     37 H5          0.6305   -0.3362    1.9671 H         1 <0>         0.0830
     38 H6         -2.5764   -0.1162    0.2132 H         1 <0>         0.2133
     39 H7         -3.3021   -3.8809    6.7492 H         1 <0>         0.4157
     40 H8         -4.7543   -3.3939    6.0588 H         1 <0>         0.4158
     41 H9          0.8214   -2.1432    3.2191 H         1 <0>         0.4134
     42 H10         0.7883   -2.8581    4.7392 H         1 <0>         0.4093
     43 H11        -0.2063   -2.5851   -0.4852 H         1 <0>         0.1206
     44 H12        -0.2495   -3.6347   -2.7053 H         1 <0>         0.1327
     45 H13         0.0795    0.2359   -4.5312 H         1 <0>         0.1289
     46 H14         0.1110    1.2767   -2.3068 H         1 <0>         0.1254
     47 H15         0.0368   -0.6662   -6.1246 H         1 <0>         0.3880
     48 H16        -0.7190   -3.1219   -7.5124 H         1 <0>         0.0772
     49 H17         0.0281   -0.3394   -8.5165 H         1 <0>         0.0545
     50 H18        -0.5125   -1.6778   -9.5579 H         1 <0>         0.0784
     51 H19        -2.6401   -1.8044   -8.2906 H         1 <0>         0.0520
     52 H20        -2.0994   -0.4659   -7.2492 H         1 <0>         0.0503
@<TRIPOS>BOND
     1    1    2 1
     2    1   33 1
     3    1   34 1
     4    1   35 1
     5    2    3 1
     6    2   15 1
     7    3    4 1
     8    3   36 1
     9    3   37 1
    10    4    8 1
    11    4    5 2
    12    5    6 1
    13    5   38 1
    14    6    7 1
    15    7   12 ar
    16    7    8 ar
    17    8    9 ar
    18    9   10 ar
    19    9   14 1
    20   10   11 ar
    21   11   12 ar
    22   11   13 1
    23   13   39 1
    24   13   40 1
    25   14   41 1
    26   14   42 1
    27   15   20 ar
    28   15   16 ar
    29   16   17 ar
    30   16   43 1
    31   17   18 ar
    32   17   44 1
    33   18   19 ar
    34   18   21 1
    35   19   20 ar
    36   19   45 1
    37   20   46 1
    38   21   22 2
    39   21   23 am
    40   23   24 1
    41   23   47 1
    42   24   25 1
    43   24   30 1
    44   24   48 1
    45   25   26 1
    46   25   49 1
    47   25   50 1
    48   26   27 1
    49   26   51 1
    50   26   52 1
    51   27   28 2
    52   27   29 1
    53   30   31 2
    54   30   32 1
@<TRIPOS>MOLECULE
CHEMBL119068
   52    54     0     0     0
SMALL
USER_CHARGES

@<TRIPOS>ATOM
      1 C1         -0.0173    1.4248    0.0099 C.3       1 <0>         0.0214
      2 O1          0.0021   -0.0041    0.0020 O.3       1 <0>        -0.2945
      3 C2          0.6062   -0.6075   -1.0565 C.ar      1 <0>         0.1624
      4 C3          1.1731    0.1601   -2.0626 C.ar      1 <0>        -0.2238
      5 C4          1.7874   -0.4523   -3.1388 C.ar      1 <0>        -0.0455
      6 C5          1.8393   -1.8314   -3.2169 C.ar      1 <0>        -0.2522
      7 C6          1.2749   -2.6062   -2.2150 C.ar      1 <0>         0.1580
      8 C7          0.6613   -1.9944   -1.1284 C.ar      1 <0>         0.0399
      9 O2          0.1111   -2.7512   -0.1402 O.3       1 <0>        -0.3035
     10 C8         -1.2598   -3.1236   -0.2953 C.3       1 <0>         0.1116
     11 C9         -1.6919   -3.9527    0.8867 C.ar      1 <0>        -0.0983
     12 C10        -1.5496   -5.3273    0.8557 C.ar      1 <0>        -0.0947
     13 C11        -1.9460   -6.0878    1.9399 C.ar      1 <0>        -0.1236
     14 C12        -2.4843   -5.4736    3.0552 C.ar      1 <0>        -0.1072
     15 C13        -2.6258   -4.0989    3.0865 C.ar      1 <0>        -0.1230
     16 C14        -2.2255   -3.3380    2.0040 C.ar      1 <0>        -0.0939
     17 O3          1.3261   -3.9630   -2.2930 O.3       1 <0>        -0.2937
     18 C15         1.9770   -4.5231   -3.4352 C.3       1 <0>         0.0249
     19 C16         2.4017    0.3858   -4.2302 C.3       1 <0>        -0.0694
     20 C17         3.8642    0.6769   -3.8877 C.3       1 <0>        -0.1021
     21 C18         4.4686    1.6089   -4.9476 C.3       1 <0>         0.1249
     22 N1          4.6062    0.8571   -6.2057 N.pl3     1 <0>        -0.7836
     23 C19         5.2473   -0.3707   -6.1566 C.2       1 <0>         0.6032
     24 N2          4.8853   -1.2197   -5.1132 N.pl3     1 <0>        -0.6494
     25 C20         4.6553   -0.6154   -3.8852 C.cat     1 <0>         0.5724
     26 N3          5.0973   -1.1327   -2.7864 N.pl3     1 <0>        -0.6763
     27 N4          6.1411   -0.7129   -7.0399 N.2       1 <0>        -0.6800
     28 H1          1.0053    1.8021    0.0021 H         1 <0>         0.0599
     29 H2         -0.5445    1.7859   -0.8732 H         1 <0>         0.0616
     30 H3         -0.5275    1.7763    0.9067 H         1 <0>         0.1103
     31 H4          1.1343    1.2379   -2.0054 H         1 <0>         0.1435
     32 H5          2.3199   -2.3061   -4.0596 H         1 <0>         0.1267
     33 H6         -1.8756   -2.2262   -0.3542 H         1 <0>         0.0628
     34 H7         -1.3771   -3.7054   -1.2095 H         1 <0>         0.0617
     35 H8         -1.1290   -5.8072   -0.0156 H         1 <0>         0.1223
     36 H9         -1.8354   -7.1619    1.9154 H         1 <0>         0.1258
     37 H10        -2.7946   -6.0679    3.9019 H         1 <0>         0.1259
     38 H11        -3.0467   -3.6191    3.9577 H         1 <0>         0.1263
     39 H12        -2.3326   -2.2637    2.0300 H         1 <0>         0.1235
     40 H13         1.9474   -5.6109   -3.3732 H         1 <0>         0.1118
     41 H14         1.4660   -4.1967   -4.3410 H         1 <0>         0.0610
     42 H15         3.0141   -4.1888   -3.4626 H         1 <0>         0.0468
     43 H16         2.3506   -0.1544   -5.1756 H         1 <0>         0.0976
     44 H17         1.8554    1.3249   -4.3183 H         1 <0>         0.1197
     45 H18         3.9252    1.1470   -2.9062 H         1 <0>         0.1423
     46 H19         3.8102    2.4638   -5.1018 H         1 <0>         0.1251
     47 H20         5.4488    1.9526   -4.6171 H         1 <0>         0.0885
     48 H21         4.9248   -0.6926   -1.9394 H         1 <0>         0.4555
     49 H22         5.6016   -1.9610   -2.8088 H         1 <0>         0.4396
     50 H23         6.3737   -0.1018   -7.7564 H         1 <0>         0.3804
     51 H24         4.2602    1.2092   -7.0407 H         1 <0>         0.4287
     52 H25         4.7987   -2.1778   -5.2379 H         1 <0>         0.4486
@<TRIPOS>BOND
     1    1    2 1
     2    1   28 1
     3    1   29 1
     4    1   30 1
     5    2    3 1
     6    3    8 ar
     7    3    4 ar
     8    4    5 ar
     9    4   31 1
    10    5    6 ar
    11    5   19 1
    12    6    7 ar
    13    6   32 1
    14    7    8 ar
    15    7   17 1
    16    8    9 1
    17    9   10 1
    18   10   11 1
    19   10   33 1
    20   10   34 1
    21   11   16 ar
    22   11   12 ar
    23   12   13 ar
    24   12   35 1
    25   13   14 ar
    26   13   36 1
    27   14   15 ar
    28   14   37 1
    29   15   16 ar
    30   15   38 1
    31   16   39 1
    32   17   18 1
    33   18   40 1
    34   18   41 1
    35   18   42 1
    36   19   20 1
    37   19   43 1
    38   19   44 1
    39   20   25 1
    40   20   21 1
    41   20   45 1
    42   21   22 1
    43   21   46 1
    44   21   47 1
    45   22   23 1
    46   22   51 1
    47   23   24 1
    48   23   27 2
    49   24   25 1
    50   24   52 1
    51   25   26 2
    52   26   48 1
    53   26   49 1
    54   27   50 1
@<TRIPOS>MOLECULE
CHEMBL119068__1
   52    54     0     0     0
SMALL
USER_CHARGES

@<TRIPOS>ATOM
      1 C1         -0.0173    1.4248    0.0099 C.3       1 <0>         0.0210
      2 O1          0.0021   -0.0041    0.0020 O.3       1 <0>        -0.2942
      3 C2          0.6263   -0.6188    1.0422 C.ar      1 <0>         0.1622
      4 C3          1.2023    0.1379    2.0514 C.ar      1 <0>        -0.2226
      5 C4          1.8370   -0.4860    3.1091 C.ar      1 <0>        -0.0447
      6 C5          1.9002   -1.8657    3.1656 C.ar      1 <0>        -0.2474
      7 C6          1.3266   -2.6296    2.1604 C.ar      1 <0>         0.1567
      8 C7          0.6826   -2.0063    1.0982 C.ar      1 <0>         0.0403
      9 O2          0.1135   -2.7526    0.1126 O.3       1 <0>        -0.3032
     10 C8          0.9387   -3.0899   -1.0043 C.3       1 <0>         0.1115
     11 C9          0.1440   -3.9120   -1.9859 C.ar      1 <0>        -0.0981
     12 C10         0.1210   -5.2897   -1.8747 C.ar      1 <0>        -0.0949
     13 C11        -0.6080   -6.0437   -2.7751 C.ar      1 <0>        -0.1237
     14 C12        -1.3144   -5.4201   -3.7865 C.ar      1 <0>        -0.1073
     15 C13        -1.2922   -4.0424   -3.8972 C.ar      1 <0>        -0.1229
     16 C14        -0.5667   -3.2880   -2.9942 C.ar      1 <0>        -0.0938
     17 O3          1.3897   -3.9870    2.2166 O.3       1 <0>        -0.2934
     18 C15         2.0623   -4.5592    3.3400 C.3       1 <0>         0.0263
     19 C16         2.4621    0.3402    4.2034 C.3       1 <0>        -0.0718
     20 C17         1.4301    0.5933    5.3042 C.3       1 <0>        -0.1100
     21 C18         2.0276    1.5246    6.3626 C.3       1 <0>         0.0660
     22 N1          3.0052    0.7844    7.1624 N.2       1 <0>        -0.5649
     23 C19         2.8401   -0.4831    7.4170 C.2       1 <0>         0.5846
     24 N2          1.7661   -1.1679    6.9556 N.pl3     1 <0>        -0.5995
     25 C20         1.0570   -0.7142    5.9566 C.cat     1 <0>         0.5594
     26 N3         -0.0152   -1.4194    5.5060 N.pl3     1 <0>        -0.7454
     27 N4          3.7831   -1.1443    8.1762 N.pl3     1 <0>        -0.8224
     28 H1          1.0053    1.8021    0.0021 H         1 <0>         0.0618
     29 H2         -0.5445    1.7859   -0.8732 H         1 <0>         0.1104
     30 H3         -0.5275    1.7763    0.9067 H         1 <0>         0.0603
     31 H4          1.1554    1.2161    2.0107 H         1 <0>         0.1440
     32 H5          2.3972   -2.3494    3.9934 H         1 <0>         0.1253
     33 H6          1.2835   -2.1771   -1.4901 H         1 <0>         0.0630
     34 H7          1.7981   -3.6654   -0.6604 H         1 <0>         0.0615
     35 H8          0.6730   -5.7769   -1.0845 H         1 <0>         0.1221
     36 H9         -0.6253   -7.1201   -2.6886 H         1 <0>         0.1257
     37 H10        -1.8834   -6.0093   -4.4904 H         1 <0>         0.1259
     38 H11        -1.8439   -3.5552   -4.6876 H         1 <0>         0.1264
     39 H12        -0.5523   -2.2114   -3.0784 H         1 <0>         0.1237
     40 H13         3.0971   -4.2169    3.3570 H         1 <0>         0.0595
     41 H14         1.5626   -4.2509    4.2584 H         1 <0>         0.0462
     42 H15         2.0404   -5.6461    3.2617 H         1 <0>         0.1109
     43 H16         3.3148   -0.1952    4.6209 H         1 <0>         0.0909
     44 H17         2.7968    1.2930    3.7932 H         1 <0>         0.1224
     45 H18         0.5409    1.0523    4.8722 H         1 <0>         0.1490
     46 H19         2.5198    2.3644    5.8721 H         1 <0>         0.1360
     47 H20         1.2335    1.8956    7.0107 H         1 <0>         0.0982
     48 H21        -0.5409   -1.0814    4.7641 H         1 <0>         0.4522
     49 H22        -0.2541   -2.2602    5.9265 H         1 <0>         0.4318
     50 H23         4.5568   -0.6660    8.5130 H         1 <0>         0.4394
     51 H24         3.6725   -2.0877    8.3731 H         1 <0>         0.4154
     52 H25         1.5200   -2.0081    7.3733 H         1 <0>         0.4304
@<TRIPOS>BOND
     1    1    2 1
     2    1   28 1
     3    1   29 1
     4    1   30 1
     5    2    3 1
     6    3    8 ar
     7    3    4 ar
     8    4    5 ar
     9    4   31 1
    10    5    6 ar
    11    5   19 1
    12    6    7 ar
    13    6   32 1
    14    7    8 ar
    15    7   17 1
    16    8    9 1
    17    9   10 1
    18   10   11 1
    19   10   33 1
    20   10   34 1
    21   11   16 ar
    22   11   12 ar
    23   12   13 ar
    24   12   35 1
    25   13   14 ar
    26   13   36 1
    27   14   15 ar
    28   14   37 1
    29   15   16 ar
    30   15   38 1
    31   16   39 1
    32   17   18 1
    33   18   40 1
    34   18   41 1
    35   18   42 1
    36   19   20 1
    37   19   43 1
    38   19   44 1
    39   20   25 1
    40   20   21 1
    41   20   45 1
    42   21   22 1
    43   21   46 1
    44   21   47 1
    45   22   23 2
    46   23   24 1
    47   23   27 1
    48   24   25 2
    49   24   52 1
    50   25   26 1
    51   26   48 1
    52   26   49 1
    53   27   50 1
    54   27   51 1
@<TRIPOS>MOLECULE
CHEMBL119068__2
   52    54     0     0     0
SMALL
USER_CHARGES

@<TRIPOS>ATOM
      1 C1         -0.0173    1.4248    0.0099 C.3       1 <0>         0.0256
      2 O1          0.0021   -0.0041    0.0020 O.3       1 <0>        -0.2936
      3 C2          0.6062   -0.6075   -1.0565 C.ar      1 <0>         0.1573
      4 C3          1.1731    0.1601   -2.0626 C.ar      1 <0>        -0.2517
      5 C4          1.7874   -0.4523   -3.1388 C.ar      1 <0>        -0.0447
      6 C5          1.8393   -1.8314   -3.2169 C.ar      1 <0>        -0.2236
      7 C6          1.2749   -2.6062   -2.2150 C.ar      1 <0>         0.1624
      8 C7          0.6613   -1.9944   -1.1284 C.ar      1 <0>         0.0397
      9 O2          0.1111   -2.7512   -0.1402 O.3       1 <0>        -0.3036
     10 C8         -1.2598   -3.1236   -0.2953 C.3       1 <0>         0.1116
     11 C9         -1.6919   -3.9527    0.8867 C.ar      1 <0>        -0.0983
     12 C10        -1.5496   -5.3273    0.8557 C.ar      1 <0>        -0.0938
     13 C11        -1.9460   -6.0878    1.9399 C.ar      1 <0>        -0.1229
     14 C12        -2.4843   -5.4736    3.0552 C.ar      1 <0>        -0.1072
     15 C13        -2.6258   -4.0989    3.0865 C.ar      1 <0>        -0.1236
     16 C14        -2.2255   -3.3380    2.0040 C.ar      1 <0>        -0.0949
     17 O3          1.3261   -3.9630   -2.2930 O.3       1 <0>        -0.2946
     18 C15         1.9770   -4.5231   -3.4352 C.3       1 <0>         0.0213
     19 C16         2.4017    0.3858   -4.2302 C.3       1 <0>        -0.0696
     20 C17         3.8642    0.6769   -3.8877 C.3       1 <0>        -0.1028
     21 C18         4.5220    1.4493   -5.0401 C.3       1 <0>         0.1310
     22 N1          3.9535    2.8068   -5.0759 N.pl3     1 <0>        -0.7351
     23 C19         3.9409    3.5320   -3.8948 C.2       1 <0>         0.6086
     24 N2          3.5219    2.8532   -2.7528 N.pl3     1 <0>        -0.6998
     25 C20         3.9360    1.5334   -2.6399 C.cat     1 <0>         0.5648
     26 N3          4.3641    1.0552   -1.5182 N.pl3     1 <0>        -0.6805
     27 N4          4.3022    4.7827   -3.8548 N.2       1 <0>        -0.6630
     28 H1          1.0053    1.8021    0.0021 H         1 <0>         0.0455
     29 H2         -0.5445    1.7859   -0.8732 H         1 <0>         0.0608
     30 H3         -0.5275    1.7763    0.9067 H         1 <0>         0.1115
     31 H4          1.1343    1.2379   -2.0054 H         1 <0>         0.1257
     32 H5          2.3199   -2.3061   -4.0596 H         1 <0>         0.1438
     33 H6         -1.8756   -2.2262   -0.3542 H         1 <0>         0.0615
     34 H7         -1.3771   -3.7054   -1.2095 H         1 <0>         0.0631
     35 H8         -1.1290   -5.8072   -0.0156 H         1 <0>         0.1236
     36 H9         -1.8354   -7.1619    1.9154 H         1 <0>         0.1264
     37 H10        -2.7946   -6.0679    3.9019 H         1 <0>         0.1259
     38 H11        -3.0467   -3.6191    3.9577 H         1 <0>         0.1258
     39 H12        -2.3326   -2.2637    2.0300 H         1 <0>         0.1221
     40 H13         1.9474   -5.6109   -3.3732 H         1 <0>         0.1103
     41 H14         1.4660   -4.1967   -4.3410 H         1 <0>         0.0618
     42 H15         3.0141   -4.1888   -3.4626 H         1 <0>         0.0600
     43 H16         2.3506   -0.1544   -5.1756 H         1 <0>         0.1203
     44 H17         1.8554    1.3249   -4.3183 H         1 <0>         0.0979
     45 H18         4.3962   -0.2599   -3.7215 H         1 <0>         0.1418
     46 H19         5.5979    1.5070   -4.8754 H         1 <0>         0.0902
     47 H20         4.3195    0.9424   -5.9835 H         1 <0>         0.1304
     48 H21         4.6481    0.1294   -1.4624 H         1 <0>         0.4537
     49 H22         4.4014    1.6221   -0.7320 H         1 <0>         0.4372
     50 H23         4.2836    5.2663   -3.0141 H         1 <0>         0.3648
     51 H24         3.6002    3.1810   -5.8980 H         1 <0>         0.4366
     52 H25         2.9729    3.2785   -2.0756 H         1 <0>         0.4400
@<TRIPOS>BOND
     1    1    2 1
     2    1   28 1
     3    1   29 1
     4    1   30 1
     5    2    3 1
     6    3    8 ar
     7    3    4 ar
     8    4    5 ar
     9    4   31 1
    10    5    6 ar
    11    5   19 1
    12    6    7 ar
    13    6   32 1
    14    7    8 ar
    15    7   17 1
    16    8    9 1
    17    9   10 1
    18   10   11 1
    19   10   33 1
    20   10   34 1
    21   11   16 ar
    22   11   12 ar
    23   12   13 ar
    24   12   35 1
    25   13   14 ar
    26   13   36 1
    27   14   15 ar
    28   14   37 1
    29   15   16 ar
    30   15   38 1
    31   16   39 1
    32   17   18 1
    33   18   40 1
    34   18   41 1
    35   18   42 1
    36   19   20 1
    37   19   43 1
    38   19   44 1
    39   20   25 1
    40   20   21 1
    41   20   45 1
    42   21   22 1
    43   21   46 1
    44   21   47 1
    45   22   23 1
    46   22   51 1
    47   23   24 1
    48   23   27 2
    49   24   25 1
    50   24   52 1
    51   25   26 2
    52   26   48 1
    53   26   49 1
    54   27   50 1
@<TRIPOS>MOLECULE
CHEMBL119068__3
   52    54     0     0     0
SMALL
USER_CHARGES

@<TRIPOS>ATOM
      1 C1         -0.1408    0.9656    0.0236 C.3       1 <0>         0.0237
      2 O1         -0.0201   -0.4560    0.1037 O.3       1 <0>        -0.2956
      3 C2          0.6644   -0.9587    1.1658 C.ar      1 <0>         0.1575
      4 C3          1.2032   -0.1015    2.1133 C.ar      1 <0>        -0.2284
      5 C4          1.8991   -0.6114    3.1933 C.ar      1 <0>        -0.0318
      6 C5          2.0611   -1.9770    3.3335 C.ar      1 <0>        -0.2256
      7 C6          1.5255   -2.8411    2.3904 C.ar      1 <0>         0.1585
      8 C7          0.8201   -2.3326    1.3062 C.ar      1 <0>         0.0428
      9 O2          0.2881   -3.1776    0.3814 O.3       1 <0>        -0.3028
     10 C8          1.1152   -3.5264   -0.7304 C.3       1 <0>         0.1111
     11 C9          0.3636   -4.4623   -1.6416 C.ar      1 <0>        -0.0968
     12 C10         0.4405   -5.8285   -1.4449 C.ar      1 <0>        -0.0941
     13 C11        -0.2490   -6.6870   -2.2806 C.ar      1 <0>        -0.1237
     14 C12        -1.0157   -6.1793   -3.3128 C.ar      1 <0>        -0.1084
     15 C13        -1.0933   -4.8132   -3.5089 C.ar      1 <0>        -0.1239
     16 C14        -0.4073   -3.9545   -2.6705 C.ar      1 <0>        -0.0944
     17 O3          1.6857   -4.1844    2.5290 O.3       1 <0>        -0.2954
     18 C15         2.4171   -4.6362    3.6705 C.3       1 <0>         0.0227
     19 C16         2.4833    0.3239    4.2203 C.3       1 <0>        -0.0750
     20 C17         1.4098    0.6876    5.2480 C.3       1 <0>        -0.1137
     21 C18         1.0141   -0.5617    6.0399 C.3       1 <0>         0.0683
     22 N1          0.2493   -0.1630    7.2228 N.2       1 <0>        -0.5639
     23 C19         0.5062    0.9554    7.8408 C.2       1 <0>         0.5826
     24 N2          1.4829    1.7939    7.4185 N.pl3     1 <0>        -0.5951
     25 C20         1.9541    1.7207    6.2025 C.cat     1 <0>         0.5595
     26 N3          2.9330    2.5738    5.7981 N.pl3     1 <0>        -0.7546
     27 N4         -0.2358    1.2942    8.9531 N.pl3     1 <0>        -0.8214
     28 H1          0.8522    1.4121   -0.0300 H         1 <0>         0.0581
     29 H2         -0.7078    1.2325   -0.8682 H         1 <0>         0.1082
     30 H3         -0.6586    1.3367    0.9081 H         1 <0>         0.0569
     31 H4          1.0791    0.9661    2.0071 H         1 <0>         0.1356
     32 H5          2.6058   -2.3715    4.1785 H         1 <0>         0.1378
     33 H6          1.3857   -2.6243   -1.2792 H         1 <0>         0.0614
     34 H7          2.0193   -4.0177   -0.3707 H         1 <0>         0.0618
     35 H8          1.0395   -6.2251   -0.6385 H         1 <0>         0.1233
     36 H9         -0.1883   -7.7543   -2.1274 H         1 <0>         0.1255
     37 H10        -1.5538   -6.8501   -3.9662 H         1 <0>         0.1250
     38 H11        -1.6921   -4.4166   -4.3155 H         1 <0>         0.1254
     39 H12        -0.4709   -2.8870   -2.8214 H         1 <0>         0.1230
     40 H13         3.4251   -4.2222    3.6433 H         1 <0>         0.0585
     41 H14         1.9131   -4.3061    4.5789 H         1 <0>         0.0590
     42 H15         2.4710   -5.7248    3.6600 H         1 <0>         0.1084
     43 H16         3.3176   -0.1645    4.7237 H         1 <0>         0.1006
     44 H17         2.8364    1.2298    3.7276 H         1 <0>         0.0914
     45 H18         0.5354    1.0890    4.7358 H         1 <0>         0.1555
     46 H19         0.4028   -1.2111    5.4133 H         1 <0>         0.1356
     47 H20         1.9124   -1.0953    6.3503 H         1 <0>         0.0952
     48 H21         3.2238    2.5746    4.8727 H         1 <0>         0.4504
     49 H22         3.3404    3.1814    6.4350 H         1 <0>         0.4336
     50 H23        -0.9383    0.7031    9.2660 H         1 <0>         0.4398
     51 H24        -0.0550    2.1237    9.4225 H         1 <0>         0.4160
     52 H25         1.8382    2.4589    8.0288 H         1 <0>         0.4318
@<TRIPOS>BOND
     1    1    2 1
     2    1   28 1
     3    1   29 1
     4    1   30 1
     5    2    3 1
     6    3    8 ar
     7    3    4 ar
     8    4    5 ar
     9    4   31 1
    10    5    6 ar
    11    5   19 1
    12    6    7 ar
    13    6   32 1
    14    7    8 ar
    15    7   17 1
    16    8    9 1
    17    9   10 1
    18   10   11 1
    19   10   33 1
    20   10   34 1
    21   11   16 ar
    22   11   12 ar
    23   12   13 ar
    24   12   35 1
    25   13   14 ar
    26   13   36 1
    27   14   15 ar
    28   14   37 1
    29   15   16 ar
    30   15   38 1
    31   16   39 1
    32   17   18 1
    33   18   40 1
    34   18   41 1
    35   18   42 1
    36   19   20 1
    37   19   43 1
    38   19   44 1
    39   20   25 1
    40   20   21 1
    41   20   45 1
    42   21   22 1
    43   21   46 1
    44   21   47 1
    45   22   23 2
    46   23   24 1
    47   23   27 1
    48   24   25 2
    49   24   52 1
    50   25   26 1
    51   26   48 1
    52   26   49 1
    53   27   50 1
    54   27   51 1
@<TRIPOS>MOLECULE
CHEMBL115428
   47    49     0     0     0
SMALL
USER_CHARGES

@<TRIPOS>ATOM
      1 C1         -0.0173    1.4248    0.0099 C.3       1 <0>         0.0228
      2 O1          0.0021   -0.0041    0.0020 O.3       1 <0>        -0.3046
      3 C2          0.6058   -0.6071   -1.0557 C.ar      1 <0>         0.1482
      4 C3          1.1731    0.1608   -2.0626 C.ar      1 <0>        -0.1976
      5 C4          1.7865   -0.4545   -3.1363 C.ar      1 <0>        -0.0840
      6 C5          1.8356   -1.8347   -3.2084 C.ar      1 <0>        -0.1689
      7 C6          1.2707   -2.6020   -2.2067 C.ar      1 <0>        -0.0700
      8 C7          0.6609   -1.9913   -1.1277 C.ar      1 <0>        -0.0927
      9 C8          0.0508   -2.8283   -0.0330 C.3       1 <0>        -0.0378
     10 C9         -1.4193   -3.0171   -0.3053 C.ar      1 <0>        -0.0850
     11 C10        -2.3361   -2.1080    0.1887 C.ar      1 <0>        -0.1069
     12 C11        -3.6846   -2.2813   -0.0610 C.ar      1 <0>        -0.1194
     13 C12        -4.1163   -3.3634   -0.8050 C.ar      1 <0>        -0.1183
     14 C13        -3.1995   -4.2720   -1.2997 C.ar      1 <0>        -0.1190
     15 C14        -1.8506   -4.0964   -1.0537 C.ar      1 <0>        -0.1160
     16 C15         2.4024    0.3789   -4.2304 C.3       1 <0>        -0.0688
     17 C16         3.8653    0.6688   -3.8886 C.3       1 <0>        -0.1017
     18 C17         4.4714    1.5962   -4.9516 C.3       1 <0>         0.1246
     19 N1          4.6081    0.8398   -6.2070 N.pl3     1 <0>        -0.7839
     20 C18         5.2472   -0.3888   -6.1535 C.2       1 <0>         0.6035
     21 N2          4.8837   -1.2337   -5.1073 N.pl3     1 <0>        -0.6482
     22 C19         4.6543   -0.6248   -3.8814 C.cat     1 <0>         0.5745
     23 N3          5.0953   -1.1389   -2.7808 N.pl3     1 <0>        -0.6773
     24 N4          6.1407   -0.7355   -7.0355 N.2       1 <0>        -0.6806
     25 H1          1.0053    1.8021    0.0021 H         1 <0>         0.0569
     26 H2         -0.5445    1.7859   -0.8732 H         1 <0>         0.0594
     27 H3         -0.5275    1.7763    0.9067 H         1 <0>         0.1076
     28 H4          1.1347    1.2387   -2.0069 H         1 <0>         0.1358
     29 H5          2.3157   -2.3139   -4.0487 H         1 <0>         0.1153
     30 H6          1.3100   -3.6796   -2.2654 H         1 <0>         0.1336
     31 H7          0.5425   -3.8006   -0.0023 H         1 <0>         0.0831
     32 H8          0.1812   -2.3247    0.9248 H         1 <0>         0.0892
     33 H9         -1.9988   -1.2626    0.7700 H         1 <0>         0.1252
     34 H10        -4.4009   -1.5714    0.3255 H         1 <0>         0.1228
     35 H11        -5.1699   -3.4991   -0.9995 H         1 <0>         0.1231
     36 H12        -3.5368   -5.1176   -1.8807 H         1 <0>         0.1229
     37 H13        -1.1339   -4.8042   -1.4433 H         1 <0>         0.1181
     38 H14         2.3506   -0.1645   -5.1739 H         1 <0>         0.0959
     39 H15         1.8576    1.3185   -4.3219 H         1 <0>         0.1148
     40 H16         3.9268    1.1422   -2.9087 H         1 <0>         0.1397
     41 H17         3.8144    2.4516   -5.1089 H         1 <0>         0.1238
     42 H18         5.4521    1.9394   -4.6221 H         1 <0>         0.0874
     43 H19         4.9233   -0.6956   -1.9353 H         1 <0>         0.4543
     44 H20         5.5982   -1.9681   -2.8002 H         1 <0>         0.4397
     45 H21         6.3745   -0.1273   -7.7540 H         1 <0>         0.3799
     46 H22         4.2629    1.1896   -7.0434 H         1 <0>         0.4284
     47 H23         4.7956   -2.1920   -5.2287 H         1 <0>         0.4500
@<TRIPOS>BOND
     1    1    2 1
     2    1   25 1
     3    1   26 1
     4    1   27 1
     5    2    3 1
     6    3    8 ar
     7    3    4 ar
     8    4    5 ar
     9    4   28 1
    10    5    6 ar
    11    5   16 1
    12    6    7 ar
    13    6   29 1
    14    7    8 ar
    15    7   30 1
    16    8    9 1
    17    9   10 1
    18    9   31 1
    19    9   32 1
    20   10   15 ar
    21   10   11 ar
    22   11   12 ar
    23   11   33 1
    24   12   13 ar
    25   12   34 1
    26   13   14 ar
    27   13   35 1
    28   14   15 ar
    29   14   36 1
    30   15   37 1
    31   16   17 1
    32   16   38 1
    33   16   39 1
    34   17   22 1
    35   17   18 1
    36   17   40 1
    37   18   19 1
    38   18   41 1
    39   18   42 1
    40   19   20 1
    41   19   46 1
    42   20   21 1
    43   20   24 2
    44   21   22 1
    45   21   47 1
    46   22   23 2
    47   23   43 1
    48   23   44 1
    49   24   45 1
@<TRIPOS>MOLECULE
CHEMBL115428__1
   47    49     0     0     0
SMALL
USER_CHARGES

@<TRIPOS>ATOM
      1 C1         -0.0173    1.4248    0.0099 C.3       1 <0>         0.0225
      2 O1          0.0021   -0.0041    0.0020 O.3       1 <0>        -0.3045
      3 C2         -1.2003   -0.6375    0.0101 C.ar      1 <0>         0.1480
      4 C3         -2.3748    0.1012    0.0195 C.ar      1 <0>        -0.1965
      5 C4         -3.5956   -0.5449    0.0272 C.ar      1 <0>        -0.0831
      6 C5         -3.6478   -1.9268    0.0256 C.ar      1 <0>        -0.1642
      7 C6         -2.4790   -2.6650    0.0167 C.ar      1 <0>        -0.0709
      8 C7         -1.2554   -2.0235    0.0032 C.ar      1 <0>        -0.0924
      9 C8          0.0182   -2.8288   -0.0128 C.3       1 <0>        -0.0375
     10 C9          0.5220   -3.0002    1.3971 C.ar      1 <0>        -0.0851
     11 C10         1.3849   -2.0672    1.9410 C.ar      1 <0>        -0.1067
     12 C11         1.8470   -2.2244    3.2343 C.ar      1 <0>        -0.1193
     13 C12         1.4457   -3.3143    3.9839 C.ar      1 <0>        -0.1183
     14 C13         0.5820   -4.2468    3.4404 C.ar      1 <0>        -0.1193
     15 C14         0.1166   -4.0873    2.1486 C.ar      1 <0>        -0.1162
     16 C15        -4.8716    0.2567    0.0379 C.3       1 <0>        -0.0713
     17 C16        -5.3139    0.5306   -1.4010 C.3       1 <0>        -0.1096
     18 C17        -6.5470    1.4382   -1.3941 C.3       1 <0>         0.0657
     19 N1         -7.7139    0.6663   -0.9628 N.2       1 <0>        -0.5660
     20 C18        -7.8273   -0.5979   -1.2589 C.2       1 <0>         0.5852
     21 N2         -6.8777   -1.2500   -1.9719 N.pl3     1 <0>        -0.5988
     22 C19        -5.6670   -0.7705   -2.0769 C.cat     1 <0>         0.5611
     23 N3         -4.7273   -1.4432   -2.7940 N.pl3     1 <0>        -0.7455
     24 N4         -8.9432   -1.2896   -0.8357 N.pl3     1 <0>        -0.8224
     25 H1          1.0053    1.8021    0.0021 H         1 <0>         0.1077
     26 H2         -0.5445    1.7859   -0.8732 H         1 <0>         0.0572
     27 H3         -0.5275    1.7763    0.9067 H         1 <0>         0.0596
     28 H4         -2.3345    1.1804    0.0211 H         1 <0>         0.1363
     29 H5         -4.6033   -2.4302    0.0316 H         1 <0>         0.1131
     30 H6         -2.5225   -3.7442    0.0158 H         1 <0>         0.1332
     31 H7         -0.1764   -3.8079   -0.4506 H         1 <0>         0.0830
     32 H8          0.7698   -2.3083   -0.6064 H         1 <0>         0.0894
     33 H9          1.6984   -1.2157    1.3553 H         1 <0>         0.1254
     34 H10         2.5218   -1.4959    3.6589 H         1 <0>         0.1229
     35 H11         1.8073   -3.4375    4.9941 H         1 <0>         0.1231
     36 H12         0.2688   -5.0985    4.0260 H         1 <0>         0.1228
     37 H13        -0.5611   -4.8139    1.7252 H         1 <0>         0.1178
     38 H14        -5.6490   -0.3045    0.5564 H         1 <0>         0.0892
     39 H15        -4.7021    1.2027    0.5522 H         1 <0>         0.1176
     40 H16        -4.5043    1.0166   -1.9453 H         1 <0>         0.1464
     41 H17        -6.3846    2.2674   -0.7056 H         1 <0>         0.1347
     42 H18        -6.7185    1.8265   -2.3981 H         1 <0>         0.0970
     43 H19        -3.8287   -1.0861   -2.8712 H         1 <0>         0.4510
     44 H20        -4.9557   -2.2799   -3.2282 H         1 <0>         0.4320
     45 H21        -9.6308   -0.8347   -0.3246 H         1 <0>         0.4392
     46 H22        -9.0402   -2.2308   -1.0491 H         1 <0>         0.4156
     47 H23        -7.1001   -2.0859   -2.4109 H         1 <0>         0.4307
@<TRIPOS>BOND
     1    1    2 1
     2    1   25 1
     3    1   26 1
     4    1   27 1
     5    2    3 1
     6    3    8 ar
     7    3    4 ar
     8    4    5 ar
     9    4   28 1
    10    5    6 ar
    11    5   16 1
    12    6    7 ar
    13    6   29 1
    14    7    8 ar
    15    7   30 1
    16    8    9 1
    17    9   10 1
    18    9   31 1
    19    9   32 1
    20   10   15 ar
    21   10   11 ar
    22   11   12 ar
    23   11   33 1
    24   12   13 ar
    25   12   34 1
    26   13   14 ar
    27   13   35 1
    28   14   15 ar
    29   14   36 1
    30   15   37 1
    31   16   17 1
    32   16   38 1
    33   16   39 1
    34   17   22 1
    35   17   18 1
    36   17   40 1
    37   18   19 1
    38   18   41 1
    39   18   42 1
    40   19   20 2
    41   20   21 1
    42   20   24 1
    43   21   22 2
    44   21   47 1
    45   22   23 1
    46   23   43 1
    47   23   44 1
    48   24   45 1
    49   24   46 1
@<TRIPOS>MOLECULE
CHEMBL115428__2
   47    49     0     0     0
SMALL
USER_CHARGES

@<TRIPOS>ATOM
      1 C1         -0.0173    1.4248    0.0099 C.3       1 <0>         0.0270
      2 O1          0.0021   -0.0041    0.0020 O.3       1 <0>        -0.3033
      3 C2          0.6058   -0.6071   -1.0557 C.ar      1 <0>         0.1418
      4 C3          1.1731    0.1608   -2.0626 C.ar      1 <0>        -0.2215
      5 C4          1.7865   -0.4545   -3.1363 C.ar      1 <0>        -0.0856
      6 C5          1.8356   -1.8347   -3.2084 C.ar      1 <0>        -0.1390
      7 C6          1.2707   -2.6020   -2.2067 C.ar      1 <0>        -0.0675
      8 C7          0.6609   -1.9913   -1.1277 C.ar      1 <0>        -0.0909
      9 C8          0.0508   -2.8283   -0.0330 C.3       1 <0>        -0.0381
     10 C9         -1.4193   -3.0171   -0.3053 C.ar      1 <0>        -0.0852
     11 C10        -2.3361   -2.1080    0.1887 C.ar      1 <0>        -0.1080
     12 C11        -3.6846   -2.2813   -0.0610 C.ar      1 <0>        -0.1203
     13 C12        -4.1163   -3.3634   -0.8050 C.ar      1 <0>        -0.1182
     14 C13        -3.1995   -4.2720   -1.2997 C.ar      1 <0>        -0.1180
     15 C14        -1.8506   -4.0964   -1.0537 C.ar      1 <0>        -0.1148
     16 C15         2.4024    0.3789   -4.2304 C.3       1 <0>        -0.0686
     17 C16         3.8653    0.6688   -3.8886 C.3       1 <0>        -0.1024
     18 C17         4.5246    1.4362   -5.0435 C.3       1 <0>         0.1305
     19 N1          3.9583    2.7944   -5.0841 N.pl3     1 <0>        -0.7350
     20 C18         3.9465    3.5238   -3.9056 C.2       1 <0>         0.6089
     21 N2          3.5262    2.8496   -2.7613 N.pl3     1 <0>        -0.7002
     22 C19         3.9382    1.5295   -2.6437 C.cat     1 <0>         0.5661
     23 N3          4.3652    1.0545   -1.5203 N.pl3     1 <0>        -0.6822
     24 N4          4.3099    4.7740   -3.8698 N.2       1 <0>        -0.6636
     25 H1          1.0053    1.8021    0.0021 H         1 <0>         0.0426
     26 H2         -0.5445    1.7859   -0.8732 H         1 <0>         0.0587
     27 H3         -0.5275    1.7763    0.9067 H         1 <0>         0.1088
     28 H4          1.1347    1.2387   -2.0069 H         1 <0>         0.1184
     29 H5          2.3157   -2.3139   -4.0487 H         1 <0>         0.1334
     30 H6          1.3100   -3.6796   -2.2654 H         1 <0>         0.1376
     31 H7          0.5425   -3.8006   -0.0023 H         1 <0>         0.0854
     32 H8          0.1812   -2.3247    0.9248 H         1 <0>         0.0873
     33 H9         -1.9988   -1.2626    0.7700 H         1 <0>         0.1232
     34 H10        -4.4009   -1.5714    0.3255 H         1 <0>         0.1219
     35 H11        -5.1699   -3.4991   -0.9995 H         1 <0>         0.1232
     36 H12        -3.5368   -5.1176   -1.8807 H         1 <0>         0.1238
     37 H13        -1.1339   -4.8042   -1.4433 H         1 <0>         0.1201
     38 H14         2.3506   -0.1645   -5.1739 H         1 <0>         0.1187
     39 H15         1.8576    1.3185   -4.3219 H         1 <0>         0.0933
     40 H16         4.3957   -0.2683   -3.7191 H         1 <0>         0.1417
     41 H17         5.6006    1.4927   -4.8787 H         1 <0>         0.0895
     42 H18         4.3215    0.9263   -5.9852 H         1 <0>         0.1303
     43 H19         4.6478    0.1285   -1.4613 H         1 <0>         0.4534
     44 H20         4.4032    1.6241   -0.7360 H         1 <0>         0.4363
     45 H21         4.2918    5.2605   -3.0308 H         1 <0>         0.3645
     46 H22         3.6057    3.1663   -5.9076 H         1 <0>         0.4365
     47 H23         2.9777    3.2780   -2.0857 H         1 <0>         0.4394
@<TRIPOS>BOND
     1    1    2 1
     2    1   25 1
     3    1   26 1
     4    1   27 1
     5    2    3 1
     6    3    8 ar
     7    3    4 ar
     8    4    5 ar
     9    4   28 1
    10    5    6 ar
    11    5   16 1
    12    6    7 ar
    13    6   29 1
    14    7    8 ar
    15    7   30 1
    16    8    9 1
    17    9   10 1
    18    9   31 1
    19    9   32 1
    20   10   15 ar
    21   10   11 ar
    22   11   12 ar
    23   11   33 1
    24   12   13 ar
    25   12   34 1
    26   13   14 ar
    27   13   35 1
    28   14   15 ar
    29   14   36 1
    30   15   37 1
    31   16   17 1
    32   16   38 1
    33   16   39 1
    34   17   22 1
    35   17   18 1
    36   17   40 1
    37   18   19 1
    38   18   41 1
    39   18   42 1
    40   19   20 1
    41   19   46 1
    42   20   21 1
    43   20   24 2
    44   21   22 1
    45   21   47 1
    46   22   23 2
    47   23   43 1
    48   23   44 1
    49   24   45 1
@<TRIPOS>MOLECULE
CHEMBL115428__3
   47    49     0     0     0
SMALL
USER_CHARGES

@<TRIPOS>ATOM
      1 C1          0.0403    0.9682   -0.1127 C.3       1 <0>         0.0251
      2 O1         -0.0673   -0.4562   -0.0766 O.3       1 <0>        -0.3056
      3 C2         -1.3206   -0.9792   -0.0251 C.ar      1 <0>         0.1422
      4 C3         -2.4245   -0.1387   -0.0154 C.ar      1 <0>        -0.2006
      5 C4         -3.6973   -0.6727    0.0364 C.ar      1 <0>        -0.0718
      6 C5         -3.8718   -2.0439    0.0787 C.ar      1 <0>        -0.1419
      7 C6         -2.7736   -2.8835    0.0696 C.ar      1 <0>        -0.0708
      8 C7         -1.4986   -2.3544    0.0120 C.ar      1 <0>        -0.0895
      9 C8         -0.3020   -3.2704   -0.0042 C.3       1 <0>        -0.0389
     10 C9          0.2161   -3.4449    1.4001 C.ar      1 <0>        -0.0816
     11 C10         1.1704   -2.5773    1.8976 C.ar      1 <0>        -0.1075
     12 C11         1.6456   -2.7374    3.1858 C.ar      1 <0>        -0.1207
     13 C12         1.1662   -3.7648    3.9767 C.ar      1 <0>        -0.1205
     14 C13         0.2112   -4.6319    3.4795 C.ar      1 <0>        -0.1194
     15 C14        -0.2671   -4.4692    2.1928 C.ar      1 <0>        -0.1154
     16 C15        -4.8966    0.2397    0.0475 C.3       1 <0>        -0.0741
     17 C16        -5.2570    0.6258   -1.3885 C.3       1 <0>        -0.1130
     18 C17        -5.7207   -0.6175   -2.1525 C.3       1 <0>         0.0692
     19 N1         -6.3705   -0.2058   -3.3982 N.2       1 <0>        -0.5646
     20 C18        -7.0556    0.9011   -3.4621 C.2       1 <0>         0.5822
     21 N2         -7.1944    1.7154   -2.3883 N.pl3     1 <0>        -0.5956
     22 C19        -6.3755    1.6373   -1.3737 C.cat     1 <0>         0.5592
     23 N3         -6.5311    2.4660   -0.3066 N.pl3     1 <0>        -0.7549
     24 N4         -7.6544    1.2527   -4.6539 N.pl3     1 <0>        -0.8219
     25 H1          1.0918    1.2523   -0.1523 H         1 <0>         0.1055
     26 H2         -0.4725    1.3491   -0.9959 H         1 <0>         0.0539
     27 H3         -0.4165    1.3899    0.7827 H         1 <0>         0.0559
     28 H4         -2.2886    0.9322   -0.0481 H         1 <0>         0.1279
     29 H5         -4.8678   -2.4595    0.1192 H         1 <0>         0.1271
     30 H6         -2.9126   -3.9540    0.1030 H         1 <0>         0.1355
     31 H7         -0.5925   -4.2405   -0.4075 H         1 <0>         0.0848
     32 H8          0.4792   -2.8366   -0.6284 H         1 <0>         0.0886
     33 H9          1.5449   -1.7746    1.2797 H         1 <0>         0.1249
     34 H10         2.3917   -2.0600    3.5742 H         1 <0>         0.1213
     35 H11         1.5380   -3.8903    4.9829 H         1 <0>         0.1219
     36 H12        -0.1631   -5.4348    4.0973 H         1 <0>         0.1224
     37 H13        -1.0159   -5.1443    1.8056 H         1 <0>         0.1197
     38 H14        -5.7401   -0.2747    0.5080 H         1 <0>         0.0991
     39 H15        -4.6639    1.1388    0.6180 H         1 <0>         0.0867
     40 H16        -4.3841    1.0542   -1.8811 H         1 <0>         0.1528
     41 H17        -4.8600   -1.2458   -2.3815 H         1 <0>         0.1358
     42 H18        -6.4282   -1.1775   -1.5409 H         1 <0>         0.0961
     43 H19        -5.8751    2.4650    0.4080 H         1 <0>         0.4503
     44 H20        -7.2980    3.0581   -0.2601 H         1 <0>         0.4332
     45 H21        -7.5628    0.6789   -5.4306 H         1 <0>         0.4396
     46 H22        -8.1672    2.0738   -4.7153 H         1 <0>         0.4158
     47 H23        -7.9132    2.3664   -2.3725 H         1 <0>         0.4314
@<TRIPOS>BOND
     1    1    2 1
     2    1   25 1
     3    1   26 1
     4    1   27 1
     5    2    3 1
     6    3    8 ar
     7    3    4 ar
     8    4    5 ar
     9    4   28 1
    10    5    6 ar
    11    5   16 1
    12    6    7 ar
    13    6   29 1
    14    7    8 ar
    15    7   30 1
    16    8    9 1
    17    9   10 1
    18    9   31 1
    19    9   32 1
    20   10   15 ar
    21   10   11 ar
    22   11   12 ar
    23   11   33 1
    24   12   13 ar
    25   12   34 1
    26   13   14 ar
    27   13   35 1
    28   14   15 ar
    29   14   36 1
    30   15   37 1
    31   16   17 1
    32   16   38 1
    33   16   39 1
    34   17   22 1
    35   17   18 1
    36   17   40 1
    37   18   19 1
    38   18   41 1
    39   18   42 1
    40   19   20 2
    41   20   21 1
    42   20   24 1
    43   21   22 2
    44   21   47 1
    45   22   23 1
    46   23   43 1
    47   23   44 1
    48   24   45 1
    49   24   46 1
@<TRIPOS>MOLECULE
CHEMBL110251
   56    58     0     0     0
SMALL
USER_CHARGES

@<TRIPOS>ATOM
      1 C1         -0.0187    1.5258    0.0104 C.3       1 <0>        -0.1509
      2 C2          0.0021   -0.0041    0.0020 C.3       1 <0>        -0.0407
      3 C3         -1.4333   -0.5336    0.0129 C.3       1 <0>        -0.0834
      4 C4         -2.1247   -0.1373   -1.2662 C.ar      1 <0>        -0.1196
      5 C5         -2.8022    1.0517   -1.3404 C.ar      1 <0>         0.0086
      6 C6         -3.4287    1.3774   -2.5487 C.ar      1 <0>        -0.2364
      7 C7         -4.1516    2.5838   -2.7215 C.ar      1 <0>         0.5697
      8 N1         -4.7146    2.8148   -3.8990 N.ar      1 <0>        -0.5964
      9 C8         -4.6091    1.9432   -4.8980 C.ar      1 <0>         0.7036
     10 N2         -3.9482    0.8060   -4.7894 N.ar      1 <0>        -0.5756
     11 C9         -3.3419    0.4777   -3.6397 C.ar      1 <0>         0.3880
     12 N3         -2.6673   -0.6643   -3.5043 N.ar      1 <0>        -0.4907
     13 C10        -2.0717   -0.9739   -2.3741 C.ar      1 <0>         0.2219
     14 N4         -5.2184    2.2411   -6.1019 N.pl3     1 <0>        -0.7859
     15 N5         -4.2668    3.4924   -1.6926 N.pl3     1 <0>        -0.7629
     16 C11         0.7309   -0.5033    1.2229 C.ar      1 <0>        -0.0867
     17 C12         0.2599   -0.1851    2.4843 C.ar      1 <0>        -0.1253
     18 C13         0.9224   -0.6389    3.6061 C.ar      1 <0>        -0.0639
     19 C14         2.0703   -1.4206    3.4664 C.ar      1 <0>        -0.0984
     20 C15         2.5401   -1.7379    2.1910 C.ar      1 <0>        -0.0812
     21 C16         1.8650   -1.2824    1.0774 C.ar      1 <0>        -0.1181
     22 C17         2.7856   -1.9100    4.6642 C.2       1 <0>         0.5379
     23 O1          2.3743   -1.6317    5.7736 O.2       1 <0>        -0.5499
     24 N6          3.8937   -2.6646    4.5259 N.am      1 <0>        -0.6715
     25 C18         4.6025   -3.1495    5.7128 C.3       1 <0>         0.0726
     26 C19         6.0685   -3.4098    5.3604 C.3       1 <0>        -0.0834
     27 C20         6.7476   -2.0884    4.9951 C.3       1 <0>        -0.1767
     28 C21         8.1915   -2.3449    4.6480 C.2       1 <0>         0.4902
     29 O2          8.6362   -3.4794    4.6891 O.co2     1 <0>        -0.6957
     30 O3          8.9151   -1.4178    4.3262 O.co2     1 <0>        -0.7188
     31 C22         3.9658   -4.4291    6.1903 C.2       1 <0>         0.4983
     32 O4          3.4288   -5.1778    5.3918 O.co2     1 <0>        -0.6999
     33 O5          3.9876   -4.7157    7.3752 O.co2     1 <0>        -0.6971
     34 H1          1.0039    1.9031    0.0027 H         1 <0>         0.0686
     35 H2         -0.5459    1.8868   -0.8726 H         1 <0>         0.0449
     36 H3         -0.5289    1.8773    0.9072 H         1 <0>         0.0634
     37 H4          0.5123   -0.3556   -0.8948 H         1 <0>         0.0832
     38 H5         -1.4190   -1.6203    0.0965 H         1 <0>         0.0991
     39 H6         -1.9701   -0.1109    0.8621 H         1 <0>         0.0935
     40 H7         -2.8514    1.7175   -0.4915 H         1 <0>         0.1623
     41 H8         -1.5306   -1.9059   -2.3034 H         1 <0>         0.1954
     42 H9         -5.7098    3.0710   -6.2045 H         1 <0>         0.4450
     43 H10        -5.1547    1.6201   -6.8444 H         1 <0>         0.4315
     44 H11        -3.8499    3.3104   -0.8358 H         1 <0>         0.4333
     45 H12        -4.7647    4.3143   -1.8248 H         1 <0>         0.4331
     46 H13        -0.6282    0.4201    2.5911 H         1 <0>         0.1201
     47 H14         0.5539   -0.3896    4.5902 H         1 <0>         0.1359
     48 H15         3.4278   -2.3423    2.0761 H         1 <0>         0.1329
     49 H16         2.2250   -1.5309    0.0900 H         1 <0>         0.1246
     50 H17         4.2219   -2.8866    3.6405 H         1 <0>         0.3912
     51 H18         4.5461   -2.3992    6.5014 H         1 <0>         0.0793
     52 H19         6.5748   -3.8538    6.2175 H         1 <0>         0.0747
     53 H20         6.1226   -4.0928    4.5126 H         1 <0>         0.0607
     54 H21         6.2413   -1.6445    4.1380 H         1 <0>         0.0491
     55 H22         6.6935   -1.4055    5.8429 H         1 <0>         0.0531
     56 H23        -3.9008    0.2028   -5.5476 H         1 <0>         0.4433
@<TRIPOS>BOND
     1    1    2 1
     2    1   34 1
     3    1   35 1
     4    1   36 1
     5    2    3 1
     6    2   16 1
     7    2   37 1
     8    3    4 1
     9    3   38 1
    10    3   39 1
    11    4   13 ar
    12    4    5 ar
    13    5    6 ar
    14    5   40 1
    15    6   11 ar
    16    6    7 ar
    17    7    8 ar
    18    7   15 1
    19    8    9 ar
    20    9   10 ar
    21    9   14 1
    22   10   11 ar
    23   10   56 1
    24   11   12 ar
    25   12   13 ar
    26   13   41 1
    27   14   42 1
    28   14   43 1
    29   15   44 1
    30   15   45 1
    31   16   21 ar
    32   16   17 ar
    33   17   18 ar
    34   17   46 1
    35   18   19 ar
    36   18   47 1
    37   19   20 ar
    38   19   22 1
    39   20   21 ar
    40   20   48 1
    41   21   49 1
    42   22   23 2
    43   22   24 am
    44   24   25 1
    45   24   50 1
    46   25   26 1
    47   25   31 1
    48   25   51 1
    49   26   27 1
    50   26   52 1
    51   26   53 1
    52   27   28 1
    53   27   54 1
    54   27   55 1
    55   28   29 2
    56   28   30 1
    57   31   32 2
    58   31   33 1
@<TRIPOS>MOLECULE
CHEMBL110251__1
   55    57     0     0     0
SMALL
USER_CHARGES

@<TRIPOS>ATOM
      1 C1         -0.0187    1.5258    0.0104 C.3       1 <0>        -0.1467
      2 C2          0.0021   -0.0041    0.0020 C.3       1 <0>        -0.0441
      3 C3         -1.4333   -0.5336    0.0129 C.3       1 <0>        -0.0676
      4 C4         -2.1247   -0.1373   -1.2662 C.ar      1 <0>        -0.1673
      5 C5         -2.8022    1.0517   -1.3404 C.ar      1 <0>        -0.0026
      6 C6         -3.4287    1.3774   -2.5487 C.ar      1 <0>        -0.2847
      7 C7         -4.1516    2.5838   -2.7215 C.ar      1 <0>         0.5233
      8 N1         -4.7146    2.8148   -3.8990 N.ar      1 <0>        -0.6386
      9 C8         -4.6091    1.9432   -4.8980 C.ar      1 <0>         0.6268
     10 N2         -3.9482    0.8060   -4.7894 N.ar      1 <0>        -0.6009
     11 C9         -3.3419    0.4777   -3.6397 C.ar      1 <0>         0.4074
     12 N3         -2.6673   -0.6643   -3.5043 N.ar      1 <0>        -0.4854
     13 C10        -2.0717   -0.9739   -2.3741 C.ar      1 <0>         0.1955
     14 N4         -5.2184    2.2411   -6.1019 N.pl3     1 <0>        -0.8162
     15 N5         -4.2668    3.4924   -1.6926 N.pl3     1 <0>        -0.8161
     16 C11         0.7309   -0.5033    1.2229 C.ar      1 <0>        -0.0733
     17 C12         0.2599   -0.1851    2.4843 C.ar      1 <0>        -0.1261
     18 C13         0.9224   -0.6389    3.6061 C.ar      1 <0>        -0.0644
     19 C14         2.0703   -1.4206    3.4664 C.ar      1 <0>        -0.1088
     20 C15         2.5401   -1.7379    2.1910 C.ar      1 <0>        -0.0819
     21 C16         1.8650   -1.2824    1.0774 C.ar      1 <0>        -0.1212
     22 C17         2.7856   -1.9100    4.6642 C.2       1 <0>         0.5424
     23 O1          2.3743   -1.6317    5.7736 O.2       1 <0>        -0.5534
     24 N6          3.8937   -2.6646    4.5259 N.am      1 <0>        -0.6747
     25 C18         4.6025   -3.1495    5.7128 C.3       1 <0>         0.0734
     26 C19         6.0685   -3.4098    5.3604 C.3       1 <0>        -0.0826
     27 C20         6.7476   -2.0884    4.9951 C.3       1 <0>        -0.1771
     28 C21         8.1915   -2.3449    4.6480 C.2       1 <0>         0.4910
     29 O2          8.6362   -3.4794    4.6891 O.co2     1 <0>        -0.6973
     30 O3          8.9151   -1.4178    4.3262 O.co2     1 <0>        -0.7196
     31 C22         3.9658   -4.4291    6.1903 C.2       1 <0>         0.4983
     32 O4          3.4288   -5.1778    5.3918 O.co2     1 <0>        -0.6984
     33 O5          3.9876   -4.7157    7.3752 O.co2     1 <0>        -0.7008
     34 H1          1.0039    1.9031    0.0027 H         1 <0>         0.0601
     35 H2         -0.5459    1.8868   -0.8726 H         1 <0>         0.0530
     36 H3         -0.5289    1.8773    0.9072 H         1 <0>         0.0580
     37 H4          0.5123   -0.3556   -0.8948 H         1 <0>         0.0812
     38 H5         -1.4190   -1.6203    0.0965 H         1 <0>         0.0844
     39 H6         -1.9701   -0.1109    0.8621 H         1 <0>         0.0788
     40 H7         -2.8514    1.7175   -0.4915 H         1 <0>         0.1344
     41 H8         -1.5306   -1.9059   -2.3034 H         1 <0>         0.1686
     42 H9         -5.7098    3.0710   -6.2045 H         1 <0>         0.4129
     43 H10        -5.1547    1.6201   -6.8444 H         1 <0>         0.4165
     44 H11        -3.8499    3.3104   -0.8358 H         1 <0>         0.4156
     45 H12        -4.7647    4.3143   -1.8248 H         1 <0>         0.4129
     46 H13        -0.6282    0.4201    2.5911 H         1 <0>         0.1209
     47 H14         0.5539   -0.3896    4.5902 H         1 <0>         0.1332
     48 H15         3.4278   -2.3423    2.0761 H         1 <0>         0.1300
     49 H16         2.2250   -1.5309    0.0900 H         1 <0>         0.1247
     50 H17         4.2219   -2.8866    3.6405 H         1 <0>         0.3916
     51 H18         4.5461   -2.3992    6.5014 H         1 <0>         0.0779
     52 H19         6.5748   -3.8538    6.2175 H         1 <0>         0.0729
     53 H20         6.1226   -4.0928    4.5126 H         1 <0>         0.0604
     54 H21         6.2413   -1.6445    4.1380 H         1 <0>         0.0509
     55 H22         6.6935   -1.4055    5.8429 H         1 <0>         0.0527
@<TRIPOS>BOND
     1    1    2 1
     2    1   34 1
     3    1   35 1
     4    1   36 1
     5    2    3 1
     6    2   16 1
     7    2   37 1
     8    3    4 1
     9    3   38 1
    10    3   39 1
    11    4   13 ar
    12    4    5 ar
    13    5    6 ar
    14    5   40 1
    15    6   11 ar
    16    6    7 ar
    17    7    8 ar
    18    7   15 1
    19    8    9 ar
    20    9   10 ar
    21    9   14 1
    22   10   11 ar
    23   11   12 ar
    24   12   13 ar
    25   13   41 1
    26   14   42 1
    27   14   43 1
    28   15   44 1
    29   15   45 1
    30   16   21 ar
    31   16   17 ar
    32   17   18 ar
    33   17   46 1
    34   18   19 ar
    35   18   47 1
    36   19   20 ar
    37   19   22 1
    38   20   21 ar
    39   20   48 1
    40   21   49 1
    41   22   23 2
    42   22   24 am
    43   24   25 1
    44   24   50 1
    45   25   26 1
    46   25   31 1
    47   25   51 1
    48   26   27 1
    49   26   52 1
    50   26   53 1
    51   27   28 1
    52   27   54 1
    53   27   55 1
    54   28   29 2
    55   28   30 1
    56   31   32 2
    57   31   33 1
@<TRIPOS>MOLECULE
CHEMBL110251__2
   56    58     0     0     0
SMALL
USER_CHARGES

@<TRIPOS>ATOM
      1 C1         -0.0187    1.5258    0.0104 C.3       1 <0>        -0.1510
      2 C2          0.0021   -0.0041    0.0020 C.3       1 <0>        -0.0405
      3 C3         -1.4333   -0.5336    0.0129 C.3       1 <0>        -0.0832
      4 C4         -2.1247   -0.1373   -1.2662 C.ar      1 <0>        -0.1196
      5 C5         -2.8022    1.0517   -1.3404 C.ar      1 <0>         0.0085
      6 C6         -3.4287    1.3774   -2.5487 C.ar      1 <0>        -0.2365
      7 C7         -4.1516    2.5838   -2.7215 C.ar      1 <0>         0.5697
      8 N1         -4.7146    2.8148   -3.8990 N.ar      1 <0>        -0.5965
      9 C8         -4.6091    1.9432   -4.8980 C.ar      1 <0>         0.7035
     10 N2         -3.9482    0.8060   -4.7894 N.ar      1 <0>        -0.5756
     11 C9         -3.3419    0.4777   -3.6397 C.ar      1 <0>         0.3880
     12 N3         -2.6673   -0.6643   -3.5043 N.ar      1 <0>        -0.4906
     13 C10        -2.0717   -0.9739   -2.3741 C.ar      1 <0>         0.2220
     14 N4         -5.2184    2.2411   -6.1019 N.pl3     1 <0>        -0.7859
     15 N5         -4.2668    3.4924   -1.6926 N.pl3     1 <0>        -0.7629
     16 C11         0.7309   -0.5033    1.2229 C.ar      1 <0>        -0.0877
     17 C12         0.2599   -0.1851    2.4843 C.ar      1 <0>        -0.1252
     18 C13         0.9224   -0.6389    3.6061 C.ar      1 <0>        -0.0641
     19 C14         2.0703   -1.4206    3.4664 C.ar      1 <0>        -0.0960
     20 C15         2.5401   -1.7379    2.1910 C.ar      1 <0>        -0.0821
     21 C16         1.8650   -1.2824    1.0774 C.ar      1 <0>        -0.1183
     22 C17         2.7856   -1.9100    4.6642 C.2       1 <0>         0.5448
     23 O1          2.3743   -1.6317    5.7736 O.2       1 <0>        -0.5513
     24 N6          3.8937   -2.6646    4.5259 N.am      1 <0>        -0.6720
     25 C18         4.6025   -3.1495    5.7128 C.3       1 <0>         0.0716
     26 C19         5.3821   -4.4175    5.3587 C.3       1 <0>        -0.0815
     27 C20         4.4016   -5.5324    4.9891 C.3       1 <0>        -0.1772
     28 C21         5.1694   -6.7814    4.6404 C.2       1 <0>         0.4900
     29 O2          6.3878   -6.7799    4.6834 O.co2     1 <0>        -0.6950
     30 O3          4.5721   -7.7933    4.3152 O.co2     1 <0>        -0.7197
     31 C22         5.5595   -2.0896    6.1943 C.2       1 <0>         0.4956
     32 O4          5.6418   -1.0276    5.6011 O.co2     1 <0>        -0.6988
     33 O5          6.2514   -2.2941    7.1772 O.co2     1 <0>        -0.6954
     34 H1          1.0039    1.9031    0.0027 H         1 <0>         0.0686
     35 H2         -0.5459    1.8868   -0.8726 H         1 <0>         0.0447
     36 H3         -0.5289    1.8773    0.9072 H         1 <0>         0.0635
     37 H4          0.5123   -0.3556   -0.8948 H         1 <0>         0.0830
     38 H5         -1.4190   -1.6203    0.0965 H         1 <0>         0.0990
     39 H6         -1.9701   -0.1109    0.8621 H         1 <0>         0.0934
     40 H7         -2.8514    1.7175   -0.4915 H         1 <0>         0.1623
     41 H8         -1.5306   -1.9059   -2.3034 H         1 <0>         0.1955
     42 H9         -5.7098    3.0710   -6.2045 H         1 <0>         0.4449
     43 H10        -5.1547    1.6201   -6.8444 H         1 <0>         0.4315
     44 H11        -3.8499    3.3104   -0.8358 H         1 <0>         0.4333
     45 H12        -4.7647    4.3143   -1.8248 H         1 <0>         0.4331
     46 H13        -0.6282    0.4201    2.5911 H         1 <0>         0.1197
     47 H14         0.5539   -0.3896    4.5902 H         1 <0>         0.1356
     48 H15         3.4278   -2.3423    2.0761 H         1 <0>         0.1319
     49 H16         2.2250   -1.5309    0.0900 H         1 <0>         0.1241
     50 H17         4.2219   -2.8866    3.6405 H         1 <0>         0.3890
     51 H18         3.8825   -3.3735    6.4998 H         1 <0>         0.0794
     52 H19         6.0388   -4.2159    4.5124 H         1 <0>         0.0555
     53 H20         5.9792   -4.7282    6.2160 H         1 <0>         0.0812
     54 H21         3.7449   -5.7340    5.8354 H         1 <0>         0.0526
     55 H22         3.8044   -5.2217    4.1318 H         1 <0>         0.0480
     56 H23        -3.9008    0.2028   -5.5476 H         1 <0>         0.4433
@<TRIPOS>BOND
     1    1    2 1
     2    1   34 1
     3    1   35 1
     4    1   36 1
     5    2    3 1
     6    2   16 1
     7    2   37 1
     8    3    4 1
     9    3   38 1
    10    3   39 1
    11    4   13 ar
    12    4    5 ar
    13    5    6 ar
    14    5   40 1
    15    6   11 ar
    16    6    7 ar
    17    7    8 ar
    18    7   15 1
    19    8    9 ar
    20    9   10 ar
    21    9   14 1
    22   10   11 ar
    23   10   56 1
    24   11   12 ar
    25   12   13 ar
    26   13   41 1
    27   14   42 1
    28   14   43 1
    29   15   44 1
    30   15   45 1
    31   16   21 ar
    32   16   17 ar
    33   17   18 ar
    34   17   46 1
    35   18   19 ar
    36   18   47 1
    37   19   20 ar
    38   19   22 1
    39   20   21 ar
    40   20   48 1
    41   21   49 1
    42   22   23 2
    43   22   24 am
    44   24   25 1
    45   24   50 1
    46   25   26 1
    47   25   31 1
    48   25   51 1
    49   26   27 1
    50   26   52 1
    51   26   53 1
    52   27   28 1
    53   27   54 1
    54   27   55 1
    55   28   29 2
    56   28   30 1
    57   31   32 2
    58   31   33 1
@<TRIPOS>MOLECULE
CHEMBL110251__3
   55    57     0     0     0
SMALL
USER_CHARGES

@<TRIPOS>ATOM
      1 C1         -0.0187    1.5258    0.0104 C.3       1 <0>        -0.1468
      2 C2          0.0021   -0.0041    0.0020 C.3       1 <0>        -0.0438
      3 C3         -1.4333   -0.5336    0.0129 C.3       1 <0>        -0.0674
      4 C4         -2.1247   -0.1373   -1.2662 C.ar      1 <0>        -0.1673
      5 C5         -2.8022    1.0517   -1.3404 C.ar      1 <0>        -0.0027
      6 C6         -3.4287    1.3774   -2.5487 C.ar      1 <0>        -0.2847
      7 C7         -4.1516    2.5838   -2.7215 C.ar      1 <0>         0.5232
      8 N1         -4.7146    2.8148   -3.8990 N.ar      1 <0>        -0.6386
      9 C8         -4.6091    1.9432   -4.8980 C.ar      1 <0>         0.6267
     10 N2         -3.9482    0.8060   -4.7894 N.ar      1 <0>        -0.6007
     11 C9         -3.3419    0.4777   -3.6397 C.ar      1 <0>         0.4073
     12 N3         -2.6673   -0.6643   -3.5043 N.ar      1 <0>        -0.4853
     13 C10        -2.0717   -0.9739   -2.3741 C.ar      1 <0>         0.1955
     14 N4         -5.2184    2.2411   -6.1019 N.pl3     1 <0>        -0.8163
     15 N5         -4.2668    3.4924   -1.6926 N.pl3     1 <0>        -0.8161
     16 C11         0.7309   -0.5033    1.2229 C.ar      1 <0>        -0.0744
     17 C12         0.2599   -0.1851    2.4843 C.ar      1 <0>        -0.1259
     18 C13         0.9224   -0.6389    3.6061 C.ar      1 <0>        -0.0646
     19 C14         2.0703   -1.4206    3.4664 C.ar      1 <0>        -0.1064
     20 C15         2.5401   -1.7379    2.1910 C.ar      1 <0>        -0.0829
     21 C16         1.8650   -1.2824    1.0774 C.ar      1 <0>        -0.1214
     22 C17         2.7856   -1.9100    4.6642 C.2       1 <0>         0.5493
     23 O1          2.3743   -1.6317    5.7736 O.2       1 <0>        -0.5549
     24 N6          3.8937   -2.6646    4.5259 N.am      1 <0>        -0.6752
     25 C18         4.6025   -3.1495    5.7128 C.3       1 <0>         0.0724
     26 C19         5.3821   -4.4175    5.3587 C.3       1 <0>        -0.0805
     27 C20         4.4016   -5.5324    4.9891 C.3       1 <0>        -0.1778
     28 C21         5.1694   -6.7814    4.6404 C.2       1 <0>         0.4909
     29 O2          6.3878   -6.7799    4.6834 O.co2     1 <0>        -0.6970
     30 O3          4.5721   -7.7933    4.3152 O.co2     1 <0>        -0.7200
     31 C22         5.5595   -2.0896    6.1943 C.2       1 <0>         0.4957
     32 O4          5.6418   -1.0276    5.6011 O.co2     1 <0>        -0.6972
     33 O5          6.2514   -2.2941    7.1772 O.co2     1 <0>        -0.6995
     34 H1          1.0039    1.9031    0.0027 H         1 <0>         0.0600
     35 H2         -0.5459    1.8868   -0.8726 H         1 <0>         0.0528
     36 H3         -0.5289    1.8773    0.9072 H         1 <0>         0.0581
     37 H4          0.5123   -0.3556   -0.8948 H         1 <0>         0.0809
     38 H5         -1.4190   -1.6203    0.0965 H         1 <0>         0.0843
     39 H6         -1.9701   -0.1109    0.8621 H         1 <0>         0.0787
     40 H7         -2.8514    1.7175   -0.4915 H         1 <0>         0.1344
     41 H8         -1.5306   -1.9059   -2.3034 H         1 <0>         0.1687
     42 H9         -5.7098    3.0710   -6.2045 H         1 <0>         0.4128
     43 H10        -5.1547    1.6201   -6.8444 H         1 <0>         0.4165
     44 H11        -3.8499    3.3104   -0.8358 H         1 <0>         0.4157
     45 H12        -4.7647    4.3143   -1.8248 H         1 <0>         0.4129
     46 H13        -0.6282    0.4201    2.5911 H         1 <0>         0.1205
     47 H14         0.5539   -0.3896    4.5902 H         1 <0>         0.1329
     48 H15         3.4278   -2.3423    2.0761 H         1 <0>         0.1290
     49 H16         2.2250   -1.5309    0.0900 H         1 <0>         0.1241
     50 H17         4.2219   -2.8866    3.6405 H         1 <0>         0.3893
     51 H18         3.8825   -3.3735    6.4998 H         1 <0>         0.0781
     52 H19         6.0388   -4.2159    4.5124 H         1 <0>         0.0551
     53 H20         5.9792   -4.7282    6.2160 H         1 <0>         0.0794
     54 H21         3.7449   -5.7340    5.8354 H         1 <0>         0.0522
     55 H22         3.8044   -5.2217    4.1318 H         1 <0>         0.0500
@<TRIPOS>BOND
     1    1    2 1
     2    1   34 1
     3    1   35 1
     4    1   36 1
     5    2    3 1
     6    2   16 1
     7    2   37 1
     8    3    4 1
     9    3   38 1
    10    3   39 1
    11    4   13 ar
    12    4    5 ar
    13    5    6 ar
    14    5   40 1
    15    6   11 ar
    16    6    7 ar
    17    7    8 ar
    18    7   15 1
    19    8    9 ar
    20    9   10 ar
    21    9   14 1
    22   10   11 ar
    23   11   12 ar
    24   12   13 ar
    25   13   41 1
    26   14   42 1
    27   14   43 1
    28   15   44 1
    29   15   45 1
    30   16   21 ar
    31   16   17 ar
    32   17   18 ar
    33   17   46 1
    34   18   19 ar
    35   18   47 1
    36   19   20 ar
    37   19   22 1
    38   20   21 ar
    39   20   48 1
    40   21   49 1
    41   22   23 2
    42   22   24 am
    43   24   25 1
    44   24   50 1
    45   25   26 1
    46   25   31 1
    47   25   51 1
    48   26   27 1
    49   26   52 1
    50   26   53 1
    51   27   28 1
    52   27   54 1
    53   27   55 1
    54   28   29 2
    55   28   30 1
    56   31   32 2
    57   31   33 1
@<TRIPOS>MOLECULE
CHEMBL110251__4
   56    58     0     0     0
SMALL
USER_CHARGES

@<TRIPOS>ATOM
      1 C1         -0.0187    1.5258    0.0104 C.3       1 <0>        -0.1523
      2 C2          0.0021   -0.0041    0.0020 C.3       1 <0>        -0.0393
      3 C3          0.7421   -0.5109    1.2415 C.3       1 <0>        -0.0834
      4 C4          2.1879   -0.0922    1.1696 C.ar      1 <0>        -0.1203
      5 C5          3.1090   -0.9058    0.5630 C.ar      1 <0>         0.0084
      6 C6          4.4399   -0.4752    0.5203 C.ar      1 <0>        -0.2349
      7 C7          5.4625   -1.2467   -0.0854 C.ar      1 <0>         0.5695
      8 N1          6.6972   -0.7648   -0.0826 N.ar      1 <0>        -0.5962
      9 C8          6.9786    0.4109    0.4716 C.ar      1 <0>         0.7036
     10 N2          6.0643    1.1679    1.0485 N.ar      1 <0>        -0.5763
     11 C9          4.7846    0.7714    1.0986 C.ar      1 <0>         0.3879
     12 N3          3.8417    1.5176    1.6745 N.ar      1 <0>        -0.4923
     13 C10         2.5888    1.1220    1.7131 C.ar      1 <0>         0.2206
     14 N4          8.2853    0.8592    0.4426 N.pl3     1 <0>        -0.7862
     15 N5          5.1808   -2.4658   -0.6616 N.pl3     1 <0>        -0.7603
     16 C11        -1.4117   -0.5257    0.0127 C.ar      1 <0>        -0.0869
     17 C12        -2.2573   -0.2021    1.0589 C.ar      1 <0>        -0.1243
     18 C13        -3.5527   -0.6763    1.0748 C.ar      1 <0>        -0.0631
     19 C14        -4.0097   -1.4842    0.0324 C.ar      1 <0>        -0.0986
     20 C15        -3.1515   -1.8068   -1.0200 C.ar      1 <0>        -0.0821
     21 C16        -1.8602   -1.3214   -1.0266 C.ar      1 <0>        -0.1197
     22 C17        -5.3966   -1.9963    0.0431 C.2       1 <0>         0.5377
     23 O1         -6.1416   -1.7140    0.9612 O.2       1 <0>        -0.5490
     24 N6         -5.8348   -2.7762   -0.9650 N.am      1 <0>        -0.6718
     25 C18        -7.2090   -3.2837   -0.9543 C.3       1 <0>         0.0726
     26 C19        -7.2849   -4.5679   -1.7824 C.3       1 <0>        -0.0834
     27 C20        -6.4459   -5.6575   -1.1118 C.3       1 <0>        -0.1763
     28 C21        -6.5206   -6.9225   -1.9275 C.2       1 <0>         0.4902
     29 O2         -7.1834   -6.9500   -2.9504 O.co2     1 <0>        -0.6952
     30 O3         -5.9181   -7.9184   -1.5645 O.co2     1 <0>        -0.7196
     31 C22        -8.1312   -2.2491   -1.5462 C.2       1 <0>         0.4979
     32 O4         -7.7188   -1.4815   -2.3990 O.co2     1 <0>        -0.6995
     33 O5         -9.2896   -2.1797   -1.1723 O.co2     1 <0>        -0.6969
     34 H1          1.0039    1.9031    0.0027 H         1 <0>         0.0468
     35 H2         -0.5459    1.8868   -0.8726 H         1 <0>         0.0682
     36 H3         -0.5289    1.8773    0.9072 H         1 <0>         0.0665
     37 H4          0.5123   -0.3556   -0.8948 H         1 <0>         0.0799
     38 H5          0.2852   -0.0874    2.1360 H         1 <0>         0.0967
     39 H6          0.6803   -1.5984    1.2822 H         1 <0>         0.0956
     40 H7          2.8164   -1.8514    0.1310 H         1 <0>         0.1642
     41 H8          1.8520    1.7556    2.1844 H         1 <0>         0.1930
     42 H9          8.9741    0.3194    0.0242 H         1 <0>         0.4451
     43 H10         8.5138    1.7138    0.8407 H         1 <0>         0.4311
     44 H11         4.2727   -2.8066   -0.6562 H         1 <0>         0.4346
     45 H12         5.8906   -2.9835   -1.0728 H         1 <0>         0.4338
     46 H13        -1.9024    0.4228    1.8651 H         1 <0>         0.1222
     47 H14        -4.2117   -0.4233    1.8923 H         1 <0>         0.1365
     48 H15        -3.4990   -2.4315   -1.8296 H         1 <0>         0.1323
     49 H16        -1.1964   -1.5667   -1.8425 H         1 <0>         0.1228
     50 H17        -5.2403   -3.0014   -1.6976 H         1 <0>         0.3908
     51 H18        -7.5105   -3.4946    0.0717 H         1 <0>         0.0794
     52 H19        -8.3219   -4.8970   -1.8485 H         1 <0>         0.0748
     53 H20        -6.8996   -4.3776   -2.7842 H         1 <0>         0.0605
     54 H21        -5.4088   -5.3285   -1.0458 H         1 <0>         0.0487
     55 H22        -6.8311   -5.8478   -0.1101 H         1 <0>         0.0532
     56 H23         6.3202    2.0179    1.4394 H         1 <0>         0.4427
@<TRIPOS>BOND
     1    1    2 1
     2    1   34 1
     3    1   35 1
     4    1   36 1
     5    2    3 1
     6    2   16 1
     7    2   37 1
     8    3    4 1
     9    3   38 1
    10    3   39 1
    11    4   13 ar
    12    4    5 ar
    13    5    6 ar
    14    5   40 1
    15    6   11 ar
    16    6    7 ar
    17    7    8 ar
    18    7   15 1
    19    8    9 ar
    20    9   10 ar
    21    9   14 1
    22   10   11 ar
    23   10   56 1
    24   11   12 ar
    25   12   13 ar
    26   13   41 1
    27   14   42 1
    28   14   43 1
    29   15   44 1
    30   15   45 1
    31   16   21 ar
    32   16   17 ar
    33   17   18 ar
    34   17   46 1
    35   18   19 ar
    36   18   47 1
    37   19   20 ar
    38   19   22 1
    39   20   21 ar
    40   20   48 1
    41   21   49 1
    42   22   23 2
    43   22   24 am
    44   24   25 1
    45   24   50 1
    46   25   26 1
    47   25   31 1
    48   25   51 1
    49   26   27 1
    50   26   52 1
    51   26   53 1
    52   27   28 1
    53   27   54 1
    54   27   55 1
    55   28   29 2
    56   28   30 1
    57   31   32 2
    58   31   33 1
@<TRIPOS>MOLECULE
CHEMBL110251__5
   55    57     0     0     0
SMALL
USER_CHARGES

@<TRIPOS>ATOM
      1 C1         -0.0187    1.5258    0.0104 C.3       1 <0>        -0.1480
      2 C2          0.0021   -0.0041    0.0020 C.3       1 <0>        -0.0429
      3 C3          0.7421   -0.5109    1.2415 C.3       1 <0>        -0.0674
      4 C4          2.1879   -0.0922    1.1696 C.ar      1 <0>        -0.1685
      5 C5          3.1090   -0.9058    0.5630 C.ar      1 <0>        -0.0033
      6 C6          4.4399   -0.4752    0.5203 C.ar      1 <0>        -0.2839
      7 C7          5.4625   -1.2467   -0.0854 C.ar      1 <0>         0.5241
      8 N1          6.6972   -0.7648   -0.0826 N.ar      1 <0>        -0.6389
      9 C8          6.9786    0.4109    0.4716 C.ar      1 <0>         0.6274
     10 N2          6.0643    1.1679    1.0485 N.ar      1 <0>        -0.6023
     11 C9          4.7846    0.7714    1.0986 C.ar      1 <0>         0.4074
     12 N3          3.8417    1.5176    1.6745 N.ar      1 <0>        -0.4870
     13 C10         2.5888    1.1220    1.7131 C.ar      1 <0>         0.1956
     14 N4          8.2853    0.8592    0.4426 N.pl3     1 <0>        -0.8163
     15 N5          5.1808   -2.4658   -0.6616 N.pl3     1 <0>        -0.8145
     16 C11        -1.4117   -0.5257    0.0127 C.ar      1 <0>        -0.0735
     17 C12        -2.2573   -0.2021    1.0589 C.ar      1 <0>        -0.1252
     18 C13        -3.5527   -0.6763    1.0748 C.ar      1 <0>        -0.0637
     19 C14        -4.0097   -1.4842    0.0324 C.ar      1 <0>        -0.1090
     20 C15        -3.1515   -1.8068   -1.0200 C.ar      1 <0>        -0.0826
     21 C16        -1.8602   -1.3214   -1.0266 C.ar      1 <0>        -0.1227
     22 C17        -5.3966   -1.9963    0.0431 C.2       1 <0>         0.5422
     23 O1         -6.1416   -1.7140    0.9612 O.2       1 <0>        -0.5527
     24 N6         -5.8348   -2.7762   -0.9650 N.am      1 <0>        -0.6750
     25 C18        -7.2090   -3.2837   -0.9543 C.3       1 <0>         0.0734
     26 C19        -7.2849   -4.5679   -1.7824 C.3       1 <0>        -0.0825
     27 C20        -6.4459   -5.6575   -1.1118 C.3       1 <0>        -0.1770
     28 C21        -6.5206   -6.9225   -1.9275 C.2       1 <0>         0.4910
     29 O2         -7.1834   -6.9500   -2.9504 O.co2     1 <0>        -0.6972
     30 O3         -5.9181   -7.9184   -1.5645 O.co2     1 <0>        -0.7197
     31 C22        -8.1312   -2.2491   -1.5462 C.2       1 <0>         0.4982
     32 O4         -7.7188   -1.4815   -2.3990 O.co2     1 <0>        -0.6987
     33 O5         -9.2896   -2.1797   -1.1723 O.co2     1 <0>        -0.7005
     34 H1          1.0039    1.9031    0.0027 H         1 <0>         0.0549
     35 H2         -0.5459    1.8868   -0.8726 H         1 <0>         0.0598
     36 H3         -0.5289    1.8773    0.9072 H         1 <0>         0.0613
     37 H4          0.5123   -0.3556   -0.8948 H         1 <0>         0.0776
     38 H5          0.2852   -0.0874    2.1360 H         1 <0>         0.0825
     39 H6          0.6803   -1.5984    1.2822 H         1 <0>         0.0803
     40 H7          2.8164   -1.8514    0.1310 H         1 <0>         0.1360
     41 H8          1.8520    1.7556    2.1844 H         1 <0>         0.1664
     42 H9          8.9741    0.3194    0.0242 H         1 <0>         0.4131
     43 H10         8.5138    1.7138    0.8407 H         1 <0>         0.4161
     44 H11         4.2727   -2.8066   -0.6562 H         1 <0>         0.4169
     45 H12         5.8906   -2.9835   -1.0728 H         1 <0>         0.4136
     46 H13        -1.9024    0.4228    1.8651 H         1 <0>         0.1231
     47 H14        -4.2117   -0.4233    1.8923 H         1 <0>         0.1338
     48 H15        -3.4990   -2.4315   -1.8296 H         1 <0>         0.1294
     49 H16        -1.1964   -1.5667   -1.8425 H         1 <0>         0.1228
     50 H17        -5.2403   -3.0014   -1.6976 H         1 <0>         0.3912
     51 H18        -7.5105   -3.4946    0.0717 H         1 <0>         0.0781
     52 H19        -8.3219   -4.8970   -1.8485 H         1 <0>         0.0729
     53 H20        -6.8996   -4.3776   -2.7842 H         1 <0>         0.0601
     54 H21        -5.4088   -5.3285   -1.0458 H         1 <0>         0.0507
     55 H22        -6.8311   -5.8478   -0.1101 H         1 <0>         0.0528
@<TRIPOS>BOND
     1    1    2 1
     2    1   34 1
     3    1   35 1
     4    1   36 1
     5    2    3 1
     6    2   16 1
     7    2   37 1
     8    3    4 1
     9    3   38 1
    10    3   39 1
    11    4   13 ar
    12    4    5 ar
    13    5    6 ar
    14    5   40 1
    15    6   11 ar
    16    6    7 ar
    17    7    8 ar
    18    7   15 1
    19    8    9 ar
    20    9   10 ar
    21    9   14 1
    22   10   11 ar
    23   11   12 ar
    24   12   13 ar
    25   13   41 1
    26   14   42 1
    27   14   43 1
    28   15   44 1
    29   15   45 1
    30   16   21 ar
    31   16   17 ar
    32   17   18 ar
    33   17   46 1
    34   18   19 ar
    35   18   47 1
    36   19   20 ar
    37   19   22 1
    38   20   21 ar
    39   20   48 1
    40   21   49 1
    41   22   23 2
    42   22   24 am
    43   24   25 1
    44   24   50 1
    45   25   26 1
    46   25   31 1
    47   25   51 1
    48   26   27 1
    49   26   52 1
    50   26   53 1
    51   27   28 1
    52   27   54 1
    53   27   55 1
    54   28   29 2
    55   28   30 1
    56   31   32 2
    57   31   33 1
@<TRIPOS>MOLECULE
CHEMBL110251__6
   56    58     0     0     0
SMALL
USER_CHARGES

@<TRIPOS>ATOM
      1 C1         -0.0187    1.5258    0.0104 C.3       1 <0>        -0.1521
      2 C2          0.0021   -0.0041    0.0020 C.3       1 <0>        -0.0390
      3 C3          0.7421   -0.5109    1.2415 C.3       1 <0>        -0.0837
      4 C4          2.1879   -0.0922    1.1696 C.ar      1 <0>        -0.1198
      5 C5          3.1090   -0.9058    0.5630 C.ar      1 <0>         0.0083
      6 C6          4.4399   -0.4752    0.5203 C.ar      1 <0>        -0.2349
      7 C7          5.4625   -1.2467   -0.0854 C.ar      1 <0>         0.5696
      8 N1          6.6972   -0.7648   -0.0826 N.ar      1 <0>        -0.5963
      9 C8          6.9786    0.4109    0.4716 C.ar      1 <0>         0.7036
     10 N2          6.0643    1.1679    1.0485 N.ar      1 <0>        -0.5762
     11 C9          4.7846    0.7714    1.0986 C.ar      1 <0>         0.3877
     12 N3          3.8417    1.5176    1.6745 N.ar      1 <0>        -0.4923
     13 C10         2.5888    1.1220    1.7131 C.ar      1 <0>         0.2207
     14 N4          8.2853    0.8592    0.4426 N.pl3     1 <0>        -0.7862
     15 N5          5.1808   -2.4658   -0.6616 N.pl3     1 <0>        -0.7607
     16 C11        -1.4117   -0.5257    0.0127 C.ar      1 <0>        -0.0880
     17 C12        -2.2573   -0.2021    1.0589 C.ar      1 <0>        -0.1241
     18 C13        -3.5527   -0.6763    1.0748 C.ar      1 <0>        -0.0633
     19 C14        -4.0097   -1.4842    0.0324 C.ar      1 <0>        -0.0961
     20 C15        -3.1515   -1.8068   -1.0200 C.ar      1 <0>        -0.0829
     21 C16        -1.8602   -1.3214   -1.0266 C.ar      1 <0>        -0.1199
     22 C17        -5.3966   -1.9963    0.0431 C.2       1 <0>         0.5446
     23 O1         -6.1416   -1.7140    0.9612 O.2       1 <0>        -0.5505
     24 N6         -5.8348   -2.7762   -0.9650 N.am      1 <0>        -0.6723
     25 C18        -7.2090   -3.2837   -0.9543 C.3       1 <0>         0.0715
     26 C19        -7.6556   -3.5768   -2.3881 C.3       1 <0>        -0.0811
     27 C20        -7.7128   -2.2699   -3.1816 C.3       1 <0>        -0.1776
     28 C21        -8.1527   -2.5586   -4.5938 C.2       1 <0>         0.4900
     29 O2         -8.3976   -3.7035   -4.9340 O.co2     1 <0>        -0.6956
     30 O3         -8.2635   -1.6473   -5.3961 O.co2     1 <0>        -0.7192
     31 C22        -7.2705   -4.5503   -0.1402 C.2       1 <0>         0.4960
     32 O4         -6.2600   -4.9885    0.3827 O.co2     1 <0>        -0.6997
     33 O5         -8.3307   -5.1369   -0.0044 O.co2     1 <0>        -0.6951
     34 H1          1.0039    1.9031    0.0027 H         1 <0>         0.0466
     35 H2         -0.5459    1.8868   -0.8726 H         1 <0>         0.0681
     36 H3         -0.5289    1.8773    0.9072 H         1 <0>         0.0664
     37 H4          0.5123   -0.3556   -0.8948 H         1 <0>         0.0796
     38 H5          0.2852   -0.0874    2.1360 H         1 <0>         0.0968
     39 H6          0.6803   -1.5984    1.2822 H         1 <0>         0.0957
     40 H7          2.8164   -1.8514    0.1310 H         1 <0>         0.1641
     41 H8          1.8520    1.7556    2.1844 H         1 <0>         0.1931
     42 H9          8.9741    0.3194    0.0242 H         1 <0>         0.4451
     43 H10         8.5138    1.7138    0.8407 H         1 <0>         0.4311
     44 H11         4.2727   -2.8066   -0.6562 H         1 <0>         0.4345
     45 H12         5.8906   -2.9835   -1.0728 H         1 <0>         0.4336
     46 H13        -1.9024    0.4228    1.8651 H         1 <0>         0.1218
     47 H14        -4.2117   -0.4233    1.8923 H         1 <0>         0.1363
     48 H15        -3.4990   -2.4315   -1.8296 H         1 <0>         0.1313
     49 H16        -1.1964   -1.5667   -1.8425 H         1 <0>         0.1223
     50 H17        -5.2403   -3.0014   -1.6976 H         1 <0>         0.3886
     51 H18        -7.8689   -2.5362   -0.5139 H         1 <0>         0.0795
     52 H19        -6.9449   -4.2565   -2.8582 H         1 <0>         0.0551
     53 H20        -8.6436   -4.0369   -2.3740 H         1 <0>         0.0811
     54 H21        -8.4235   -1.5902   -2.7115 H         1 <0>         0.0529
     55 H22        -6.7248   -1.8098   -3.1957 H         1 <0>         0.0481
     56 H23         6.3202    2.0179    1.4394 H         1 <0>         0.4427
@<TRIPOS>BOND
     1    1    2 1
     2    1   34 1
     3    1   35 1
     4    1   36 1
     5    2    3 1
     6    2   16 1
     7    2   37 1
     8    3    4 1
     9    3   38 1
    10    3   39 1
    11    4   13 ar
    12    4    5 ar
    13    5    6 ar
    14    5   40 1
    15    6   11 ar
    16    6    7 ar
    17    7    8 ar
    18    7   15 1
    19    8    9 ar
    20    9   10 ar
    21    9   14 1
    22   10   11 ar
    23   10   56 1
    24   11   12 ar
    25   12   13 ar
    26   13   41 1
    27   14   42 1
    28   14   43 1
    29   15   44 1
    30   15   45 1
    31   16   21 ar
    32   16   17 ar
    33   17   18 ar
    34   17   46 1
    35   18   19 ar
    36   18   47 1
    37   19   20 ar
    38   19   22 1
    39   20   21 ar
    40   20   48 1
    41   21   49 1
    42   22   23 2
    43   22   24 am
    44   24   25 1
    45   24   50 1
    46   25   26 1
    47   25   31 1
    48   25   51 1
    49   26   27 1
    50   26   52 1
    51   26   53 1
    52   27   28 1
    53   27   54 1
    54   27   55 1
    55   28   29 2
    56   28   30 1
    57   31   32 2
    58   31   33 1
@<TRIPOS>MOLECULE
CHEMBL110251__7
   55    57     0     0     0
SMALL
USER_CHARGES

@<TRIPOS>ATOM
      1 C1         -0.0187    1.5258    0.0104 C.3       1 <0>        -0.1478
      2 C2          0.0021   -0.0041    0.0020 C.3       1 <0>        -0.0426
      3 C3          0.7421   -0.5109    1.2415 C.3       1 <0>        -0.0677
      4 C4          2.1879   -0.0922    1.1696 C.ar      1 <0>        -0.1680
      5 C5          3.1090   -0.9058    0.5630 C.ar      1 <0>        -0.0036
      6 C6          4.4399   -0.4752    0.5203 C.ar      1 <0>        -0.2838
      7 C7          5.4625   -1.2467   -0.0854 C.ar      1 <0>         0.5241
      8 N1          6.6972   -0.7648   -0.0826 N.ar      1 <0>        -0.6388
      9 C8          6.9786    0.4109    0.4716 C.ar      1 <0>         0.6273
     10 N2          6.0643    1.1679    1.0485 N.ar      1 <0>        -0.6022
     11 C9          4.7846    0.7714    1.0986 C.ar      1 <0>         0.4073
     12 N3          3.8417    1.5176    1.6745 N.ar      1 <0>        -0.4869
     13 C10         2.5888    1.1220    1.7131 C.ar      1 <0>         0.1956
     14 N4          8.2853    0.8592    0.4426 N.pl3     1 <0>        -0.8163
     15 N5          5.1808   -2.4658   -0.6616 N.pl3     1 <0>        -0.8147
     16 C11        -1.4117   -0.5257    0.0127 C.ar      1 <0>        -0.0746
     17 C12        -2.2573   -0.2021    1.0589 C.ar      1 <0>        -0.1250
     18 C13        -3.5527   -0.6763    1.0748 C.ar      1 <0>        -0.0639
     19 C14        -4.0097   -1.4842    0.0324 C.ar      1 <0>        -0.1065
     20 C15        -3.1515   -1.8068   -1.0200 C.ar      1 <0>        -0.0835
     21 C16        -1.8602   -1.3214   -1.0266 C.ar      1 <0>        -0.1229
     22 C17        -5.3966   -1.9963    0.0431 C.2       1 <0>         0.5492
     23 O1         -6.1416   -1.7140    0.9612 O.2       1 <0>        -0.5542
     24 N6         -5.8348   -2.7762   -0.9650 N.am      1 <0>        -0.6754
     25 C18        -7.2090   -3.2837   -0.9543 C.3       1 <0>         0.0723
     26 C19        -7.6556   -3.5768   -2.3881 C.3       1 <0>        -0.0803
     27 C20        -7.7128   -2.2699   -3.1816 C.3       1 <0>        -0.1779
     28 C21        -8.1527   -2.5586   -4.5938 C.2       1 <0>         0.4908
     29 O2         -8.3976   -3.7035   -4.9340 O.co2     1 <0>        -0.6971
     30 O3         -8.2635   -1.6473   -5.3961 O.co2     1 <0>        -0.7200
     31 C22        -7.2705   -4.5503   -0.1402 C.2       1 <0>         0.4958
     32 O4         -6.2600   -4.9885    0.3827 O.co2     1 <0>        -0.6974
     33 O5         -8.3307   -5.1369   -0.0044 O.co2     1 <0>        -0.6994
     34 H1          1.0039    1.9031    0.0027 H         1 <0>         0.0547
     35 H2         -0.5459    1.8868   -0.8726 H         1 <0>         0.0597
     36 H3         -0.5289    1.8773    0.9072 H         1 <0>         0.0612
     37 H4          0.5123   -0.3556   -0.8948 H         1 <0>         0.0774
     38 H5          0.2852   -0.0874    2.1360 H         1 <0>         0.0826
     39 H6          0.6803   -1.5984    1.2822 H         1 <0>         0.0804
     40 H7          2.8164   -1.8514    0.1310 H         1 <0>         0.1359
     41 H8          1.8520    1.7556    2.1844 H         1 <0>         0.1665
     42 H9          8.9741    0.3194    0.0242 H         1 <0>         0.4130
     43 H10         8.5138    1.7138    0.8407 H         1 <0>         0.4161
     44 H11         4.2727   -2.8066   -0.6562 H         1 <0>         0.4168
     45 H12         5.8906   -2.9835   -1.0728 H         1 <0>         0.4134
     46 H13        -1.9024    0.4228    1.8651 H         1 <0>         0.1227
     47 H14        -4.2117   -0.4233    1.8923 H         1 <0>         0.1335
     48 H15        -3.4990   -2.4315   -1.8296 H         1 <0>         0.1284
     49 H16        -1.1964   -1.5667   -1.8425 H         1 <0>         0.1222
     50 H17        -5.2403   -3.0014   -1.6976 H         1 <0>         0.3890
     51 H18        -7.8689   -2.5362   -0.5139 H         1 <0>         0.0782
     52 H19        -6.9449   -4.2565   -2.8582 H         1 <0>         0.0549
     53 H20        -8.6436   -4.0369   -2.3740 H         1 <0>         0.0794
     54 H21        -8.4235   -1.5902   -2.7115 H         1 <0>         0.0524
     55 H22        -6.7248   -1.8098   -3.1957 H         1 <0>         0.0498
@<TRIPOS>BOND
     1    1    2 1
     2    1   34 1
     3    1   35 1
     4    1   36 1
     5    2    3 1
     6    2   16 1
     7    2   37 1
     8    3    4 1
     9    3   38 1
    10    3   39 1
    11    4   13 ar
    12    4    5 ar
    13    5    6 ar
    14    5   40 1
    15    6   11 ar
    16    6    7 ar
    17    7    8 ar
    18    7   15 1
    19    8    9 ar
    20    9   10 ar
    21    9   14 1
    22   10   11 ar
    23   11   12 ar
    24   12   13 ar
    25   13   41 1
    26   14   42 1
    27   14   43 1
    28   15   44 1
    29   15   45 1
    30   16   21 ar
    31   16   17 ar
    32   17   18 ar
    33   17   46 1
    34   18   19 ar
    35   18   47 1
    36   19   20 ar
    37   19   22 1
    38   20   21 ar
    39   20   48 1
    40   21   49 1
    41   22   23 2
    42   22   24 am
    43   24   25 1
    44   24   50 1
    45   25   26 1
    46   25   31 1
    47   25   51 1
    48   26   27 1
    49   26   52 1
    50   26   53 1
    51   27   28 1
    52   27   54 1
    53   27   55 1
    54   28   29 2
    55   28   30 1
    56   31   32 2
    57   31   33 1
@<TRIPOS>MOLECULE
CHEMBL11187
   52    54     0     0     0
SMALL
USER_CHARGES

@<TRIPOS>ATOM
      1 C1         -0.0169    1.3931    0.0097 C.ar      1 <0>        -0.0268
      2 C2          1.1672    2.0959    0.0022 C.ar      1 <0>        -0.1598
      3 C3          2.3803    1.4174   -0.0131 C.ar      1 <0>         0.1370
      4 C4          2.4034    0.0276   -0.0207 C.ar      1 <0>        -0.2135
      5 C5          1.2236   -0.6825   -0.0133 C.ar      1 <0>        -0.0444
      6 C6          0.0021   -0.0041    0.0020 C.ar      1 <0>        -0.1439
      7 C7         -1.2649   -0.7613    0.0105 C.2       1 <0>         0.5470
      8 O1         -2.3268   -0.1694    0.0243 O.2       1 <0>        -0.5543
      9 N1         -1.2445   -2.1089    0.0031 N.am      1 <0>        -0.6767
     10 C8         -2.5020   -2.8605    0.0116 C.3       1 <0>         0.0738
     11 C9         -2.2631   -4.2476    0.6114 C.3       1 <0>        -0.0826
     12 C10        -1.8664   -4.1057    2.0823 C.3       1 <0>        -0.1771
     13 C11        -1.6311   -5.4720    2.6731 C.2       1 <0>         0.4910
     14 O2         -1.7679   -6.4669    1.9818 O.co2     1 <0>        -0.6974
     15 O3         -1.3038   -5.5824    3.8424 O.co2     1 <0>        -0.7199
     16 C12        -3.0108   -3.0044   -1.3997 C.2       1 <0>         0.4985
     17 O4         -2.2239   -3.0470   -2.3300 O.co2     1 <0>        -0.6988
     18 O5         -4.2092   -3.0781   -1.6111 O.co2     1 <0>        -0.7009
     19 O6          3.5451    2.1136   -0.0209 O.3       1 <0>        -0.3126
     20 C13         4.7551    1.3536   -0.0365 C.3       1 <0>         0.0627
     21 C14         5.9542    2.3039   -0.0434 C.3       1 <0>        -0.0575
     22 C15         7.2303    1.5023   -0.0598 C.ar      1 <0>         0.0504
     23 C16         7.7500    1.0567   -1.2747 C.ar      1 <0>         0.1492
     24 N2          8.8631    0.3555   -1.3145 N.ar      1 <0>        -0.4392
     25 C17         9.5016    0.0680   -0.1776 C.ar      1 <0>         0.3714
     26 C18         8.9690    0.5234    1.0543 C.ar      1 <0>        -0.0887
     27 N3          7.8461    1.2344    1.0720 N.ar      1 <0>        -0.3747
     28 C19         9.6974    0.1888    2.2793 C.ar      1 <0>         0.5448
     29 N4         10.8113   -0.5202    2.1597 N.ar      1 <0>        -0.6295
     30 C20        11.2536   -0.9150    0.9700 C.ar      1 <0>         0.6388
     31 N5         10.6370   -0.6412   -0.1625 N.ar      1 <0>        -0.6018
     32 N6         12.4217   -1.6513    0.9175 N.pl3     1 <0>        -0.8087
     33 N7          9.2414    0.5970    3.5136 N.pl3     1 <0>        -0.7905
     34 H1         -0.9589    1.9210    0.0260 H         1 <0>         0.1425
     35 H2          1.1534    3.1758    0.0077 H         1 <0>         0.1328
     36 H3          3.3479   -0.4960   -0.0329 H         1 <0>         0.1286
     37 H4          1.2424   -1.7623   -0.0196 H         1 <0>         0.1328
     38 H5         -0.3973   -2.5811   -0.0078 H         1 <0>         0.3905
     39 H6         -3.2398   -2.3275    0.6112 H         1 <0>         0.0782
     40 H7         -3.1763   -4.8380    0.5367 H         1 <0>         0.0728
     41 H8         -1.4622   -4.7465    0.0656 H         1 <0>         0.0599
     42 H9         -0.9532   -3.5153    2.1570 H         1 <0>         0.0507
     43 H10        -2.6673   -3.6069    2.6281 H         1 <0>         0.0530
     44 H11         4.7981    0.7207    0.8499 H         1 <0>         0.0670
     45 H12         4.7808    0.7297   -0.9299 H         1 <0>         0.0673
     46 H13         5.9112    2.9367   -0.9298 H         1 <0>         0.0997
     47 H14         5.9285    2.9277    0.8500 H         1 <0>         0.0976
     48 H15         7.2328    1.2893   -2.1938 H         1 <0>         0.1838
     49 H16        12.8961   -1.8672    1.7356 H         1 <0>         0.4159
     50 H17        12.7673   -1.9523    0.0626 H         1 <0>         0.4188
     51 H18         8.4244    1.1155    3.5817 H         1 <0>         0.4273
     52 H19         9.7374    0.3659    4.3146 H         1 <0>         0.4158
@<TRIPOS>BOND
     1    1    6 ar
     2    1    2 ar
     3    1   34 1
     4    2    3 ar
     5    2   35 1
     6    3    4 ar
     7    3   19 1
     8    4    5 ar
     9    4   36 1
    10    5    6 ar
    11    5   37 1
    12    6    7 1
    13    7    8 2
    14    7    9 am
    15    9   10 1
    16    9   38 1
    17   10   11 1
    18   10   16 1
    19   10   39 1
    20   11   12 1
    21   11   40 1
    22   11   41 1
    23   12   13 1
    24   12   42 1
    25   12   43 1
    26   13   14 2
    27   13   15 1
    28   16   17 2
    29   16   18 1
    30   19   20 1
    31   20   21 1
    32   20   44 1
    33   20   45 1
    34   21   22 1
    35   21   46 1
    36   21   47 1
    37   22   27 ar
    38   22   23 ar
    39   23   24 ar
    40   23   48 1
    41   24   25 ar
    42   25   31 ar
    43   25   26 ar
    44   26   27 ar
    45   26   28 ar
    46   28   29 ar
    47   28   33 1
    48   29   30 ar
    49   30   31 ar
    50   30   32 1
    51   32   49 1
    52   32   50 1
    53   33   51 1
    54   33   52 1
@<TRIPOS>MOLECULE
CHEMBL11187__1
   52    54     0     0     0
SMALL
USER_CHARGES

@<TRIPOS>ATOM
      1 C1         -0.0169    1.3931    0.0097 C.ar      1 <0>        -0.0271
      2 C2          1.1672    2.0959    0.0022 C.ar      1 <0>        -0.1595
      3 C3          2.3803    1.4174   -0.0131 C.ar      1 <0>         0.1359
      4 C4          2.4034    0.0276   -0.0207 C.ar      1 <0>        -0.2135
      5 C5          1.2236   -0.6825   -0.0133 C.ar      1 <0>        -0.0454
      6 C6          0.0021   -0.0041    0.0020 C.ar      1 <0>        -0.1413
      7 C7         -1.2649   -0.7613    0.0105 C.2       1 <0>         0.5539
      8 O1         -2.3268   -0.1694    0.0243 O.2       1 <0>        -0.5558
      9 N1         -1.2445   -2.1089    0.0031 N.am      1 <0>        -0.6771
     10 C8         -2.5020   -2.8605    0.0116 C.3       1 <0>         0.0728
     11 C9         -2.2752   -4.2411   -0.6078 C.3       1 <0>        -0.0806
     12 C10        -1.9078   -4.0834   -2.0846 C.3       1 <0>        -0.1778
     13 C11        -1.6844   -5.4432   -2.6946 C.2       1 <0>         0.4908
     14 O2         -1.8076   -6.4455   -2.0115 O.co2     1 <0>        -0.6972
     15 O3         -1.3804   -5.5410   -3.8713 O.co2     1 <0>        -0.7201
     16 C12        -2.9826   -3.0196    1.4310 C.2       1 <0>         0.4957
     17 O4         -2.3349   -2.5487    2.3503 O.co2     1 <0>        -0.6973
     18 O5         -4.0193   -3.6191    1.6600 O.co2     1 <0>        -0.7000
     19 O6          3.5451    2.1136   -0.0209 O.3       1 <0>        -0.3128
     20 C13         4.7551    1.3536   -0.0365 C.3       1 <0>         0.0628
     21 C14         5.9542    2.3039   -0.0434 C.3       1 <0>        -0.0576
     22 C15         7.2303    1.5023   -0.0598 C.ar      1 <0>         0.0509
     23 C16         7.7500    1.0567   -1.2747 C.ar      1 <0>         0.1494
     24 N2          8.8631    0.3555   -1.3145 N.ar      1 <0>        -0.4389
     25 C17         9.5016    0.0680   -0.1776 C.ar      1 <0>         0.3713
     26 C18         8.9690    0.5234    1.0543 C.ar      1 <0>        -0.0889
     27 N3          7.8461    1.2344    1.0720 N.ar      1 <0>        -0.3750
     28 C19         9.6974    0.1888    2.2793 C.ar      1 <0>         0.5446
     29 N4         10.8113   -0.5202    2.1597 N.ar      1 <0>        -0.6296
     30 C20        11.2536   -0.9150    0.9700 C.ar      1 <0>         0.6386
     31 N5         10.6370   -0.6412   -0.1625 N.ar      1 <0>        -0.6014
     32 N6         12.4217   -1.6513    0.9175 N.pl3     1 <0>        -0.8088
     33 N7          9.2414    0.5970    3.5136 N.pl3     1 <0>        -0.7909
     34 H1         -0.9589    1.9210    0.0260 H         1 <0>         0.1422
     35 H2          1.1534    3.1758    0.0077 H         1 <0>         0.1325
     36 H3          3.3479   -0.4960   -0.0329 H         1 <0>         0.1280
     37 H4          1.2424   -1.7623   -0.0196 H         1 <0>         0.1318
     38 H5         -0.3973   -2.5811   -0.0078 H         1 <0>         0.3883
     39 H6         -3.2516   -2.3212   -0.5676 H         1 <0>         0.0784
     40 H7         -1.4637   -4.7457   -0.0834 H         1 <0>         0.0545
     41 H8         -3.1868   -4.8323   -0.5213 H         1 <0>         0.0793
     42 H9         -2.7193   -3.5788   -2.6090 H         1 <0>         0.0526
     43 H10        -0.9962   -3.4921   -2.1711 H         1 <0>         0.0499
     44 H11         4.7981    0.7207    0.8499 H         1 <0>         0.0666
     45 H12         4.7808    0.7297   -0.9299 H         1 <0>         0.0673
     46 H13         5.9112    2.9367   -0.9298 H         1 <0>         0.0998
     47 H14         5.9285    2.9277    0.8500 H         1 <0>         0.0975
     48 H15         7.2328    1.2893   -2.1938 H         1 <0>         0.1840
     49 H16        12.8961   -1.8672    1.7356 H         1 <0>         0.4158
     50 H17        12.7673   -1.9523    0.0626 H         1 <0>         0.4189
     51 H18         8.4244    1.1155    3.5817 H         1 <0>         0.4272
     52 H19         9.7374    0.3659    4.3146 H         1 <0>         0.4155
@<TRIPOS>BOND
     1    1    6 ar
     2    1    2 ar
     3    1   34 1
     4    2    3 ar
     5    2   35 1
     6    3    4 ar
     7    3   19 1
     8    4    5 ar
     9    4   36 1
    10    5    6 ar
    11    5   37 1
    12    6    7 1
    13    7    8 2
    14    7    9 am
    15    9   10 1
    16    9   38 1
    17   10   11 1
    18   10   16 1
    19   10   39 1
    20   11   12 1
    21   11   40 1
    22   11   41 1
    23   12   13 1
    24   12   42 1
    25   12   43 1
    26   13   14 2
    27   13   15 1
    28   16   17 2
    29   16   18 1
    30   19   20 1
    31   20   21 1
    32   20   44 1
    33   20   45 1
    34   21   22 1
    35   21   46 1
    36   21   47 1
    37   22   27 ar
    38   22   23 ar
    39   23   24 ar
    40   23   48 1
    41   24   25 ar
    42   25   31 ar
    43   25   26 ar
    44   26   27 ar
    45   26   28 ar
    46   28   29 ar
    47   28   33 1
    48   29   30 ar
    49   30   31 ar
    50   30   32 1
    51   32   49 1
    52   32   50 1
    53   33   51 1
    54   33   52 1
@<TRIPOS>MOLECULE
CHEMBL1161155
   46    49     0     0     0
SMALL
USER_CHARGES

@<TRIPOS>ATOM
      1 C1          2.3800   -1.5938   -1.5934 C.3       1 <0>        -0.1339
      2 C2          1.1310   -1.4723   -0.7590 C.ar      1 <0>         0.2488
      3 C3          0.1052   -0.6265   -1.1510 C.ar      1 <0>        -0.0129
      4 C4         -1.0374   -0.5466   -0.3434 C.ar      1 <0>         0.5293
      5 N1         -1.0961   -1.2802    0.7626 N.ar      1 <0>        -0.5655
      6 C5         -0.0924   -2.0758    1.1000 C.ar      1 <0>         0.6648
      7 N2          0.9979   -2.1771    0.3557 N.ar      1 <0>        -0.5628
      8 N3         -0.1880   -2.8264    2.2612 N.pl3     1 <0>        -0.7894
      9 N4         -2.0903    0.2857   -0.6932 N.pl3     1 <0>        -0.7783
     10 N5          0.2085    0.1321   -2.3282 N.am      1 <0>        -0.6679
     11 C6          0.4406   -0.4802   -3.5062 C.2       1 <0>         0.5281
     12 O1          0.6576   -1.6733   -3.5373 O.2       1 <0>        -0.5061
     13 C7          0.4305    0.3174   -4.7848 C.3       1 <0>        -0.0652
     14 C8         -0.9424    0.9668   -4.9699 C.3       1 <0>        -0.1014
     15 C9         -0.9526    1.7766   -6.2681 C.3       1 <0>        -0.0841
     16 C10        -0.6636    0.8491   -7.4500 C.3       1 <0>        -0.1138
     17 C11         0.7093    0.1996   -7.2649 C.3       1 <0>        -0.0875
     18 C12         0.7195   -0.6101   -5.9668 C.3       1 <0>        -0.0883
     19 C13         1.7829    1.2875   -7.1959 C.3       1 <0>        -0.1134
     20 C14         1.4939    2.2150   -6.0139 C.3       1 <0>        -0.0843
     21 C15         0.1210    2.8644   -6.1990 C.3       1 <0>        -0.1127
     22 C16         1.5042    1.4052   -4.7158 C.3       1 <0>        -0.1024
     23 H1          2.2998   -2.4655   -2.2428 H         1 <0>         0.1291
     24 H2          2.4992   -0.6972   -2.2018 H         1 <0>         0.1058
     25 H3          3.2445   -1.7065   -0.9392 H         1 <0>         0.1004
     26 H4         -0.9824   -2.7647    2.8145 H         1 <0>         0.4457
     27 H5          0.5394   -3.4133    2.5207 H         1 <0>         0.4314
     28 H6         -2.0845    0.7414   -1.5495 H         1 <0>         0.4292
     29 H7         -2.8325    0.4121   -0.0816 H         1 <0>         0.4309
     30 H8          0.1129    1.0967   -2.2935 H         1 <0>         0.4208
     31 H9         -1.7073    0.1918   -5.0191 H         1 <0>         0.0711
     32 H10        -1.1483    1.6276   -4.1279 H         1 <0>         0.0641
     33 H11        -1.9307    2.2393   -6.4000 H         1 <0>         0.0795
     34 H12        -1.4285    0.0740   -7.4992 H         1 <0>         0.0650
     35 H13        -0.6709    1.4259   -8.3748 H         1 <0>         0.0700
     36 H14         0.9152   -0.4612   -8.1069 H         1 <0>         0.0796
     37 H15         1.6976   -1.0728   -5.8349 H         1 <0>         0.0724
     38 H16        -0.0454   -1.3851   -6.0159 H         1 <0>         0.0718
     39 H17         2.7610    0.8248   -7.0640 H         1 <0>         0.0654
     40 H18         1.7756    1.8643   -8.1207 H         1 <0>         0.0698
     41 H19         2.2588    2.9900   -5.9647 H         1 <0>         0.0798
     42 H20         0.1137    3.4413   -7.1238 H         1 <0>         0.0709
     43 H21        -0.0849    3.5252   -5.3570 H         1 <0>         0.0643
     44 H22         1.2983    2.0660   -3.8737 H         1 <0>         0.0661
     45 H23         2.4823    0.9426   -4.5839 H         1 <0>         0.0718
     46 H24         1.7114   -2.7733    0.6320 H         1 <0>         0.4439
@<TRIPOS>BOND
     1    1    2 1
     2    1   23 1
     3    1   24 1
     4    1   25 1
     5    2    7 ar
     6    2    3 ar
     7    3    4 ar
     8    3   10 1
     9    4    5 ar
    10    4    9 1
    11    5    6 ar
    12    6    7 ar
    13    6    8 1
    14    7   46 1
    15    8   26 1
    16    8   27 1
    17    9   28 1
    18    9   29 1
    19   10   11 am
    20   10   30 1
    21   11   12 2
    22   11   13 1
    23   13   18 1
    24   13   22 1
    25   13   14 1
    26   14   15 1
    27   14   31 1
    28   14   32 1
    29   15   21 1
    30   15   16 1
    31   15   33 1
    32   16   17 1
    33   16   34 1
    34   16   35 1
    35   17   18 1
    36   17   19 1
    37   17   36 1
    38   18   37 1
    39   18   38 1
    40   19   20 1
    41   19   39 1
    42   19   40 1
    43   20   21 1
    44   20   22 1
    45   20   41 1
    46   21   42 1
    47   21   43 1
    48   22   44 1
    49   22   45 1
@<TRIPOS>MOLECULE
CHEMBL1161155__1
   45    48     0     0     0
SMALL
USER_CHARGES

@<TRIPOS>ATOM
      1 C1          2.3800   -1.5938   -1.5934 C.3       1 <0>        -0.0966
      2 C2          1.1310   -1.4723   -0.7590 C.ar      1 <0>         0.2617
      3 C3          0.1052   -0.6265   -1.1510 C.ar      1 <0>        -0.0924
      4 C4         -1.0374   -0.5466   -0.3434 C.ar      1 <0>         0.4794
      5 N1         -1.0961   -1.2802    0.7626 N.ar      1 <0>        -0.6215
      6 C5         -0.0924   -2.0758    1.1000 C.ar      1 <0>         0.6053
      7 N2          0.9979   -2.1771    0.3557 N.ar      1 <0>        -0.5966
      8 N3         -0.1880   -2.8264    2.2612 N.pl3     1 <0>        -0.8197
      9 N4         -2.0903    0.2857   -0.6932 N.pl3     1 <0>        -0.8342
     10 N5          0.2085    0.1321   -2.3282 N.am      1 <0>        -0.6582
     11 C6          0.4406   -0.4802   -3.5062 C.2       1 <0>         0.5201
     12 O1          0.6576   -1.6733   -3.5373 O.2       1 <0>        -0.5163
     13 C7          0.4305    0.3174   -4.7848 C.3       1 <0>        -0.0661
     14 C8         -0.9424    0.9668   -4.9700 C.3       1 <0>        -0.1000
     15 C9         -0.9526    1.7766   -6.2681 C.3       1 <0>        -0.0837
     16 C10        -0.6636    0.8490   -7.4500 C.3       1 <0>        -0.1109
     17 C11         0.7093    0.1996   -7.2649 C.3       1 <0>        -0.0870
     18 C12         0.7195   -0.6102   -5.9668 C.3       1 <0>        -0.0874
     19 C13         1.7829    1.2874   -7.1959 C.3       1 <0>        -0.1107
     20 C14         1.4939    2.2150   -6.0139 C.3       1 <0>        -0.0839
     21 C15         0.1210    2.8644   -6.1991 C.3       1 <0>        -0.1101
     22 C16         1.5042    1.4052   -4.7158 C.3       1 <0>        -0.1017
     23 H1          2.2998   -2.4655   -2.2428 H         1 <0>         0.0975
     24 H2          2.4992   -0.6972   -2.2018 H         1 <0>         0.0683
     25 H3          3.2445   -1.7065   -0.9392 H         1 <0>         0.0757
     26 H4         -0.9824   -2.7647    2.8145 H         1 <0>         0.4137
     27 H5          0.5394   -3.4133    2.5207 H         1 <0>         0.4160
     28 H6         -2.0845    0.7414   -1.5495 H         1 <0>         0.4093
     29 H7         -2.8325    0.4121   -0.0816 H         1 <0>         0.4090
     30 H8          0.1128    1.0967   -2.2935 H         1 <0>         0.4017
     31 H9         -1.7073    0.1918   -5.0191 H         1 <0>         0.0685
     32 H10        -1.1483    1.6276   -4.1279 H         1 <0>         0.0643
     33 H11        -1.9307    2.2392   -6.4000 H         1 <0>         0.0747
     34 H12        -1.4285    0.0740   -7.4992 H         1 <0>         0.0632
     35 H13        -0.6709    1.4259   -8.3748 H         1 <0>         0.0648
     36 H14         0.9152   -0.4612   -8.1069 H         1 <0>         0.0748
     37 H15         1.6976   -1.0728   -5.8349 H         1 <0>         0.0709
     38 H16        -0.0454   -1.3852   -6.0159 H         1 <0>         0.0696
     39 H17         2.7610    0.8248   -7.0640 H         1 <0>         0.0639
     40 H18         1.7756    1.8643   -8.1207 H         1 <0>         0.0647
     41 H19         2.2588    2.9900   -5.9647 H         1 <0>         0.0752
     42 H20         0.1137    3.4413   -7.1239 H         1 <0>         0.0657
     43 H21        -0.0849    3.5252   -5.3570 H         1 <0>         0.0632
     44 H22         1.2983    2.0660   -3.8737 H         1 <0>         0.0656
     45 H23         2.4823    0.9425   -4.5839 H         1 <0>         0.0701
@<TRIPOS>BOND
     1    1    2 1
     2    1   23 1
     3    1   24 1
     4    1   25 1
     5    2    7 ar
     6    2    3 ar
     7    3    4 ar
     8    3   10 1
     9    4    5 ar
    10    4    9 1
    11    5    6 ar
    12    6    7 ar
    13    6    8 1
    14    8   26 1
    15    8   27 1
    16    9   28 1
    17    9   29 1
    18   10   11 am
    19   10   30 1
    20   11   12 2
    21   11   13 1
    22   13   18 1
    23   13   22 1
    24   13   14 1
    25   14   15 1
    26   14   31 1
    27   14   32 1
    28   15   21 1
    29   15   16 1
    30   15   33 1
    31   16   17 1
    32   16   34 1
    33   16   35 1
    34   17   18 1
    35   17   19 1
    36   17   36 1
    37   18   37 1
    38   18   38 1
    39   19   20 1
    40   19   39 1
    41   19   40 1
    42   20   21 1
    43   20   22 1
    44   20   41 1
    45   21   42 1
    46   21   43 1
    47   22   44 1
    48   22   45 1
@<TRIPOS>MOLECULE
CHEMBL421594
   35    37     0     0     0
SMALL
USER_CHARGES

@<TRIPOS>ATOM
      1 C1         -0.0173    1.4248    0.0099 C.3       1 <0>         0.0244
      2 O1          0.0021   -0.0041    0.0020 O.3       1 <0>        -0.3123
      3 C2         -1.1996   -0.6371    0.0101 C.ar      1 <0>         0.1840
      4 C3         -2.3740    0.1066    0.0196 C.ar      1 <0>        -0.2424
      5 C4         -3.5965   -0.5283    0.0282 C.ar      1 <0>        -0.0242
      6 C5         -3.6579   -1.9233    0.0271 C.ar      1 <0>        -0.0953
      7 C6         -2.4733   -2.6716    0.0171 C.ar      1 <0>         0.2119
      8 C7         -1.2504   -2.0232    0.0031 C.ar      1 <0>        -0.2471
      9 O2         -2.5248   -4.0284    0.0159 O.3       1 <0>        -0.2724
     10 C8         -1.2772   -4.7250    0.0054 C.3       1 <0>         0.0188
     11 C9         -4.9664   -2.6074    0.0369 C.2       1 <0>         0.3084
     12 N1         -6.1875   -1.9795    0.0420 N.pl3     1 <0>        -0.5798
     13 H1         -6.3412   -1.0218    0.0401 H         1 <0>         0.4255
     14 C10        -7.1508   -2.9580    0.0498 C.ar      1 <0>         0.3511
     15 C11        -6.4646   -4.1848    0.0492 C.ar      1 <0>        -0.1492
     16 N2         -5.1396   -3.9072    0.0362 N.2       1 <0>        -0.4150
     17 C12        -7.2207   -5.3709    0.0564 C.ar      1 <0>         0.5451
     18 N3         -8.5459   -5.2796    0.0635 N.ar      1 <0>        -0.6303
     19 C13        -9.1522   -4.0995    0.0638 C.ar      1 <0>         0.6305
     20 N4         -8.4797   -2.9596    0.0568 N.ar      1 <0>        -0.6163
     21 N5        -10.5369   -4.0591    0.0713 N.pl3     1 <0>        -0.8174
     22 N6         -6.5973   -6.6065    0.0557 N.pl3     1 <0>        -0.8147
     23 H2          1.0053    1.8021    0.0021 H         1 <0>         0.1037
     24 H3         -0.5445    1.7859   -0.8732 H         1 <0>         0.0598
     25 H4         -0.5275    1.7763    0.9067 H         1 <0>         0.0598
     26 H5         -2.3278    1.1856    0.0205 H         1 <0>         0.1373
     27 H6         -4.5069    0.0526    0.0363 H         1 <0>         0.1315
     28 H7         -0.3354   -2.5968   -0.0090 H         1 <0>         0.1447
     29 H8         -0.7026   -4.4545    0.8913 H         1 <0>         0.0576
     30 H9         -1.4609   -5.7994    0.0056 H         1 <0>         0.1040
     31 H10        -0.7163   -4.4524   -0.8886 H         1 <0>         0.0576
     32 H11       -11.0462   -4.8846    0.0762 H         1 <0>         0.4159
     33 H12       -10.9971   -3.2052    0.0717 H         1 <0>         0.4150
     34 H13        -5.6288   -6.6611    0.0502 H         1 <0>         0.4210
     35 H14        -7.1288   -7.4179    0.0607 H         1 <0>         0.4090
@<TRIPOS>BOND
     1    1    2 1
     2    1   23 1
     3    1   24 1
     4    1   25 1
     5    2    3 1
     6    3    8 ar
     7    3    4 ar
     8    4    5 ar
     9    4   26 1
    10    5    6 ar
    11    5   27 1
    12    6    7 ar
    13    6   11 1
    14    7    8 ar
    15    7    9 1
    16    8   28 1
    17    9   10 1
    18   10   29 1
    19   10   30 1
    20   10   31 1
    21   11   16 2
    22   11   12 1
    23   12   13 1
    24   12   14 1
    25   14   20 ar
    26   14   15 ar
    27   15   16 1
    28   15   17 ar
    29   17   18 ar
    30   17   22 1
    31   18   19 ar
    32   19   20 ar
    33   19   21 1
    34   21   32 1
    35   21   33 1
    36   22   34 1
    37   22   35 1
@<TRIPOS>MOLECULE
CHEMBL118909
   48    50     0     0     0
SMALL
USER_CHARGES

@<TRIPOS>ATOM
      1 C1         -0.0173    1.4248    0.0099 C.3       1 <0>         0.0222
      2 O1          0.0021   -0.0041    0.0020 O.3       1 <0>        -0.3004
      3 C2          0.6062   -0.6075   -1.0564 C.ar      1 <0>         0.1167
      4 C3          1.1729    0.1590   -2.0621 C.ar      1 <0>        -0.1675
      5 C4          1.7870   -0.4560   -3.1371 C.ar      1 <0>        -0.0982
      6 C5          1.8372   -1.8356   -3.2121 C.ar      1 <0>        -0.1234
      7 C6          1.2734   -2.6062   -2.2124 C.ar      1 <0>        -0.1900
      8 C7          0.6617   -1.9961   -1.1290 C.ar      1 <0>         0.1097
      9 O2          0.1119   -2.7526   -0.1417 O.3       1 <0>        -0.2904
     10 C8          0.2064   -4.1715   -0.2827 C.3       1 <0>         0.1083
     11 C9         -0.4529   -4.8385    0.8968 C.ar      1 <0>        -0.1095
     12 C10         0.2857   -5.1285    2.0288 C.ar      1 <0>        -0.0961
     13 C11        -0.3191   -5.7404    3.1107 C.ar      1 <0>        -0.1212
     14 C12        -1.6626   -6.0619    3.0610 C.ar      1 <0>        -0.1010
     15 C13        -2.4015   -5.7712    1.9294 C.ar      1 <0>        -0.1188
     16 C14        -1.7976   -5.1554    0.8490 C.ar      1 <0>        -0.0921
     17 C15         2.5075   -2.5009   -4.3865 C.3       1 <0>        -0.0632
     18 C16         3.9888   -2.7191   -4.0718 C.3       1 <0>        -0.1025
     19 C17         4.6973   -3.3094   -5.2994 C.3       1 <0>         0.1247
     20 N1          4.2305   -4.6928   -5.4868 N.pl3     1 <0>        -0.7835
     21 C18         4.2760   -5.5426   -4.3929 C.2       1 <0>         0.6037
     22 N2          3.8125   -5.0265   -3.1849 N.pl3     1 <0>        -0.6499
     23 C19         4.1285   -3.7001   -2.9256 C.cat     1 <0>         0.5734
     24 N3          4.5252   -3.3182   -1.7565 N.pl3     1 <0>        -0.6786
     25 N4          4.7281   -6.7603   -4.4894 N.2       1 <0>        -0.6808
     26 H1          1.0053    1.8021    0.0021 H         1 <0>         0.0590
     27 H2         -0.5445    1.7859   -0.8732 H         1 <0>         0.0606
     28 H3         -0.5275    1.7763    0.9067 H         1 <0>         0.1084
     29 H4          1.1344    1.2368   -2.0063 H         1 <0>         0.1441
     30 H5          2.2283    0.1425   -3.9203 H         1 <0>         0.1360
     31 H6          1.3136   -3.6837   -2.2735 H         1 <0>         0.1255
     32 H7         -0.2940   -4.4795   -1.2008 H         1 <0>         0.0720
     33 H8          1.2558   -4.4633   -0.3254 H         1 <0>         0.0574
     34 H9          1.3353   -4.8773    2.0676 H         1 <0>         0.1196
     35 H10         0.2581   -5.9675    3.9948 H         1 <0>         0.1283
     36 H11        -2.1350   -6.5406    3.9060 H         1 <0>         0.1292
     37 H12        -3.4510   -6.0227    1.8904 H         1 <0>         0.1297
     38 H13        -2.3757   -4.9249   -0.0336 H         1 <0>         0.1245
     39 H14         2.0316   -3.4623   -4.5797 H         1 <0>         0.0929
     40 H15         2.4129   -1.8652   -5.2669 H         1 <0>         0.1173
     41 H16         4.4507   -1.7696   -3.8013 H         1 <0>         0.1416
     42 H17         4.4542   -2.7180   -6.1822 H         1 <0>         0.1247
     43 H18         5.7752   -3.3052   -5.1375 H         1 <0>         0.0872
     44 H19         4.7409   -2.3859   -1.5981 H         1 <0>         0.4550
     45 H20         4.6073   -3.9639   -1.0373 H         1 <0>         0.4387
     46 H21         5.0445   -7.0940   -5.3435 H         1 <0>         0.3801
     47 H22         3.9025   -4.9993   -6.3467 H         1 <0>         0.4285
     48 H23         3.2985   -5.5629   -2.5613 H         1 <0>         0.4484
@<TRIPOS>BOND
     1    1    2 1
     2    1   26 1
     3    1   27 1
     4    1   28 1
     5    2    3 1
     6    3    8 ar
     7    3    4 ar
     8    4    5 ar
     9    4   29 1
    10    5    6 ar
    11    5   30 1
    12    6    7 ar
    13    6   17 1
    14    7    8 ar
    15    7   31 1
    16    8    9 1
    17    9   10 1
    18   10   11 1
    19   10   32 1
    20   10   33 1
    21   11   16 ar
    22   11   12 ar
    23   12   13 ar
    24   12   34 1
    25   13   14 ar
    26   13   35 1
    27   14   15 ar
    28   14   36 1
    29   15   16 ar
    30   15   37 1
    31   16   38 1
    32   17   18 1
    33   17   39 1
    34   17   40 1
    35   18   23 1
    36   18   19 1
    37   18   41 1
    38   19   20 1
    39   19   42 1
    40   19   43 1
    41   20   21 1
    42   20   47 1
    43   21   22 1
    44   21   25 2
    45   22   23 1
    46   22   48 1
    47   23   24 2
    48   24   44 1
    49   24   45 1
    50   25   46 1
@<TRIPOS>MOLECULE
CHEMBL118909__1
   48    50     0     0     0
SMALL
USER_CHARGES

@<TRIPOS>ATOM
      1 C1         -0.0173    1.4248    0.0099 C.3       1 <0>         0.0220
      2 O1          0.0021   -0.0041    0.0020 O.3       1 <0>        -0.3004
      3 C2         -1.2011   -0.6379    0.0101 C.ar      1 <0>         0.1171
      4 C3         -2.3743    0.0994    0.0195 C.ar      1 <0>        -0.1677
      5 C4         -3.5965   -0.5465    0.0272 C.ar      1 <0>        -0.0968
      6 C5         -3.6519   -1.9279    0.0261 C.ar      1 <0>        -0.1227
      7 C6         -2.4852   -2.6694    0.0172 C.ar      1 <0>        -0.1849
      8 C7         -1.2569   -2.0283    0.0032 C.ar      1 <0>         0.1079
      9 O2         -0.1083   -2.7563   -0.0116 O.3       1 <0>        -0.2903
     10 C8         -0.2420   -4.1790   -0.0180 C.3       1 <0>         0.1094
     11 C9          1.1255   -4.8120   -0.0344 C.ar      1 <0>        -0.1095
     12 C10         1.7438   -5.0907   -1.2389 C.ar      1 <0>        -0.0966
     13 C11         2.9982   -5.6714   -1.2540 C.ar      1 <0>        -0.1213
     14 C12         3.6345   -5.9729   -0.0644 C.ar      1 <0>        -0.1012
     15 C13         3.0167   -5.6933    1.1402 C.ar      1 <0>        -0.1184
     16 C14         1.7641   -5.1088    1.1552 C.ar      1 <0>        -0.0923
     17 C15        -4.9869   -2.6268    0.0350 C.3       1 <0>        -0.0656
     18 C16        -5.4493   -2.8618   -1.4044 C.3       1 <0>        -0.1105
     19 C17        -6.8543   -3.4702   -1.3986 C.3       1 <0>         0.0655
     20 N1         -6.7740   -4.8698   -0.9765 N.2       1 <0>        -0.5645
     21 C18        -5.7395   -5.6023   -1.2795 C.2       1 <0>         0.5843
     22 N2         -4.6994   -5.1056   -1.9915 N.pl3     1 <0>        -0.5999
     23 C19        -4.5043   -3.8175   -2.0885 C.cat     1 <0>         0.5606
     24 N3         -3.4515   -3.3396   -2.8048 N.pl3     1 <0>        -0.7477
     25 N4         -5.7028   -6.9174   -0.8649 N.pl3     1 <0>        -0.8228
     26 H1          1.0053    1.8021    0.0021 H         1 <0>         0.1083
     27 H2         -0.5445    1.7859   -0.8732 H         1 <0>         0.0593
     28 H3         -0.5275    1.7763    0.9067 H         1 <0>         0.0607
     29 H4         -2.3338    1.1787    0.0211 H         1 <0>         0.1446
     30 H5         -4.5102    0.0294    0.0345 H         1 <0>         0.1366
     31 H6         -2.5312   -3.7485    0.0167 H         1 <0>         0.1241
     32 H7         -0.7791   -4.4975    0.8754 H         1 <0>         0.0704
     33 H8         -0.7960   -4.4879   -0.9044 H         1 <0>         0.0569
     34 H9          1.2466   -4.8552   -2.1683 H         1 <0>         0.1193
     35 H10         3.4809   -5.8898   -2.1951 H         1 <0>         0.1283
     36 H11         4.6143   -6.4272   -0.0762 H         1 <0>         0.1293
     37 H12         3.5137   -5.9292    2.0695 H         1 <0>         0.1299
     38 H13         1.2830   -4.8869    2.0963 H         1 <0>         0.1244
     39 H14        -4.8923   -3.5844    0.5471 H         1 <0>         0.0862
     40 H15        -5.7178   -2.0075    0.5549 H         1 <0>         0.1200
     41 H16        -5.4626   -1.9140   -1.9426 H         1 <0>         0.1484
     42 H17        -7.4875   -2.9169   -0.7051 H         1 <0>         0.1357
     43 H18        -7.2782   -3.4164   -2.4013 H         1 <0>         0.0970
     44 H19        -3.3077   -2.3830   -2.8760 H         1 <0>         0.4517
     45 H20        -2.8444   -3.9554   -3.2443 H         1 <0>         0.4308
     46 H21        -6.4409   -7.2859   -0.3547 H         1 <0>         0.4393
     47 H22        -4.9388   -7.4738   -1.0836 H         1 <0>         0.4152
     48 H23        -4.0901   -5.7158   -2.4357 H         1 <0>         0.4299
@<TRIPOS>BOND
     1    1    2 1
     2    1   26 1
     3    1   27 1
     4    1   28 1
     5    2    3 1
     6    3    8 ar
     7    3    4 ar
     8    4    5 ar
     9    4   29 1
    10    5    6 ar
    11    5   30 1
    12    6    7 ar
    13    6   17 1
    14    7    8 ar
    15    7   31 1
    16    8    9 1
    17    9   10 1
    18   10   11 1
    19   10   32 1
    20   10   33 1
    21   11   16 ar
    22   11   12 ar
    23   12   13 ar
    24   12   34 1
    25   13   14 ar
    26   13   35 1
    27   14   15 ar
    28   14   36 1
    29   15   16 ar
    30   15   37 1
    31   16   38 1
    32   17   18 1
    33   17   39 1
    34   17   40 1
    35   18   23 1
    36   18   19 1
    37   18   41 1
    38   19   20 1
    39   19   42 1
    40   19   43 1
    41   20   21 2
    42   21   22 1
    43   21   25 1
    44   22   23 2
    45   22   48 1
    46   23   24 1
    47   24   44 1
    48   24   45 1
    49   25   46 1
    50   25   47 1
@<TRIPOS>MOLECULE
CHEMBL118909__2
   48    50     0     0     0
SMALL
USER_CHARGES

@<TRIPOS>ATOM
      1 C1         -0.0173    1.4248    0.0099 C.3       1 <0>         0.0234
      2 O1          0.0021   -0.0041    0.0020 O.3       1 <0>        -0.2988
      3 C2          0.6062   -0.6075   -1.0564 C.ar      1 <0>         0.1146
      4 C3          1.1729    0.1590   -2.0621 C.ar      1 <0>        -0.1707
      5 C4          1.7870   -0.4560   -3.1371 C.ar      1 <0>        -0.1287
      6 C5          1.8372   -1.8356   -3.2121 C.ar      1 <0>        -0.1186
      7 C6          1.2734   -2.6062   -2.2124 C.ar      1 <0>        -0.1662
      8 C7          0.6617   -1.9961   -1.1290 C.ar      1 <0>         0.1161
      9 O2          0.1119   -2.7526   -0.1417 O.3       1 <0>        -0.2916
     10 C8          0.2064   -4.1715   -0.2827 C.3       1 <0>         0.1037
     11 C9         -0.4529   -4.8385    0.8968 C.ar      1 <0>        -0.1070
     12 C10         0.2857   -5.1285    2.0288 C.ar      1 <0>        -0.0946
     13 C11        -0.3191   -5.7404    3.1107 C.ar      1 <0>        -0.1221
     14 C12        -1.6626   -6.0619    3.0610 C.ar      1 <0>        -0.1028
     15 C13        -2.4015   -5.7712    1.9294 C.ar      1 <0>        -0.1207
     16 C14        -1.7976   -5.1554    0.8490 C.ar      1 <0>        -0.0932
     17 C15         2.5075   -2.5009   -4.3865 C.3       1 <0>        -0.0641
     18 C16         3.9888   -2.7191   -4.0718 C.3       1 <0>        -0.1037
     19 C17         4.6562   -3.4816   -5.2253 C.3       1 <0>         0.1307
     20 N1          4.7330   -2.5878   -6.3924 N.pl3     1 <0>        -0.7352
     21 C18         5.2819   -1.3289   -6.2057 C.2       1 <0>         0.6091
     22 N2          4.8622   -0.6289   -5.0768 N.pl3     1 <0>        -0.6991
     23 C19         4.6823   -1.3801   -3.9237 C.cat     1 <0>         0.5669
     24 N3          5.0884   -0.9554   -2.7727 N.pl3     1 <0>        -0.6822
     25 N4          6.1452   -0.8268   -7.0418 N.2       1 <0>        -0.6645
     26 H1          1.0053    1.8021    0.0021 H         1 <0>         0.0558
     27 H2         -0.5445    1.7859   -0.8732 H         1 <0>         0.0592
     28 H3         -0.5275    1.7763    0.9067 H         1 <0>         0.1087
     29 H4          1.1344    1.2368   -2.0063 H         1 <0>         0.1397
     30 H5          2.2283    0.1425   -3.9203 H         1 <0>         0.1169
     31 H6          1.3136   -3.6837   -2.2735 H         1 <0>         0.1428
     32 H7         -0.2940   -4.4795   -1.2008 H         1 <0>         0.0737
     33 H8          1.2558   -4.4633   -0.3254 H         1 <0>         0.0712
     34 H9          1.3353   -4.8773    2.0676 H         1 <0>         0.1221
     35 H10         0.2581   -5.9675    3.9948 H         1 <0>         0.1276
     36 H11        -2.1350   -6.5406    3.9060 H         1 <0>         0.1279
     37 H12        -3.4510   -6.0227    1.8904 H         1 <0>         0.1284
     38 H13        -2.3757   -4.9249   -0.0336 H         1 <0>         0.1241
     39 H14         2.0316   -3.4623   -4.5797 H         1 <0>         0.1159
     40 H15         2.4129   -1.8652   -5.2669 H         1 <0>         0.0954
     41 H16         4.0881   -3.2887   -3.1478 H         1 <0>         0.1397
     42 H17         5.6603   -3.7863   -4.9305 H         1 <0>         0.0888
     43 H18         4.0621   -4.3606   -5.4755 H         1 <0>         0.1295
     44 H19         4.9516   -1.4973   -1.9799 H         1 <0>         0.4527
     45 H20         5.5301   -0.0947   -2.7016 H         1 <0>         0.4368
     46 H21         6.5134    0.0570   -6.8864 H         1 <0>         0.3646
     47 H22         4.4107   -2.8704   -7.2626 H         1 <0>         0.4364
     48 H23         4.7052    0.3281   -5.0955 H         1 <0>         0.4411
@<TRIPOS>BOND
     1    1    2 1
     2    1   26 1
     3    1   27 1
     4    1   28 1
     5    2    3 1
     6    3    8 ar
     7    3    4 ar
     8    4    5 ar
     9    4   29 1
    10    5    6 ar
    11    5   30 1
    12    6    7 ar
    13    6   17 1
    14    7    8 ar
    15    7   31 1
    16    8    9 1
    17    9   10 1
    18   10   11 1
    19   10   32 1
    20   10   33 1
    21   11   16 ar
    22   11   12 ar
    23   12   13 ar
    24   12   34 1
    25   13   14 ar
    26   13   35 1
    27   14   15 ar
    28   14   36 1
    29   15   16 ar
    30   15   37 1
    31   16   38 1
    32   17   18 1
    33   17   39 1
    34   17   40 1
    35   18   23 1
    36   18   19 1
    37   18   41 1
    38   19   20 1
    39   19   42 1
    40   19   43 1
    41   20   21 1
    42   20   47 1
    43   21   22 1
    44   21   25 2
    45   22   23 1
    46   22   48 1
    47   23   24 2
    48   24   44 1
    49   24   45 1
    50   25   46 1
@<TRIPOS>MOLECULE
CHEMBL118909__3
   48    50     0     0     0
SMALL
USER_CHARGES

@<TRIPOS>ATOM
      1 C1          0.3263    0.9346   -0.0334 C.3       1 <0>         0.0231
      2 O1          0.2183   -0.4898    0.0061 O.3       1 <0>        -0.3004
      3 C2         -1.0366   -1.0137    0.0155 C.ar      1 <0>         0.1176
      4 C3         -2.1394   -0.1754   -0.0185 C.ar      1 <0>        -0.1707
      5 C4         -3.4143   -0.7096   -0.0093 C.ar      1 <0>        -0.1045
      6 C5         -3.5927   -2.0799    0.0341 C.ar      1 <0>        -0.1078
      7 C6         -2.4968   -2.9219    0.0687 C.ar      1 <0>        -0.1663
      8 C7         -1.2161   -2.3931    0.0535 C.ar      1 <0>         0.1110
      9 O2         -0.1369   -3.2202    0.0813 O.3       1 <0>        -0.2922
     10 C8         -0.3969   -4.6249    0.1197 C.3       1 <0>         0.1040
     11 C9          0.9088   -5.3768    0.1464 C.ar      1 <0>        -0.1051
     12 C10         1.5156   -5.7504   -1.0381 C.ar      1 <0>        -0.0941
     13 C11         2.7133   -6.4402   -1.0136 C.ar      1 <0>        -0.1220
     14 C12         3.3044   -6.7560    0.1954 C.ar      1 <0>        -0.1042
     15 C13         2.6981   -6.3817    1.3799 C.ar      1 <0>        -0.1217
     16 C14         1.5025   -5.6881    1.3553 C.ar      1 <0>        -0.0941
     17 C15        -4.9848   -2.6570    0.0444 C.3       1 <0>        -0.0689
     18 C16        -5.5028   -2.7647   -1.3912 C.3       1 <0>        -0.1141
     19 C17        -4.6637   -3.7863   -2.1636 C.3       1 <0>         0.0688
     20 N1         -5.3492   -4.1324   -3.4101 N.2       1 <0>        -0.5651
     21 C18        -6.6506   -4.1667   -3.4715 C.2       1 <0>         0.5830
     22 N2         -7.4218   -3.8835   -2.3942 N.pl3     1 <0>        -0.5962
     23 C19        -6.9399   -3.2219   -1.3764 C.cat     1 <0>         0.5593
     24 N3         -7.7320   -2.9460   -0.3058 N.pl3     1 <0>        -0.7545
     25 N4         -7.2584   -4.4993   -4.6642 N.pl3     1 <0>        -0.8220
     26 H1          1.3785    1.2192   -0.0369 H         1 <0>         0.1067
     27 H2         -0.1548    1.3105   -0.9363 H         1 <0>         0.0581
     28 H3         -0.1623    1.3605    0.8429 H         1 <0>         0.0585
     29 H4         -2.0028    0.8954   -0.0517 H         1 <0>         0.1411
     30 H5         -4.2730   -0.0551   -0.0359 H         1 <0>         0.1277
     31 H6         -2.6388   -3.9920    0.1030 H         1 <0>         0.1366
     32 H7         -0.9721   -4.8636    1.0142 H         1 <0>         0.0707
     33 H8         -0.9644   -4.9136   -0.7650 H         1 <0>         0.0703
     34 H9          1.0538   -5.5036   -1.9827 H         1 <0>         0.1233
     35 H10         3.1871   -6.7327   -1.9391 H         1 <0>         0.1274
     36 H11         4.2398   -7.2956    0.2145 H         1 <0>         0.1272
     37 H12         3.1597   -6.6287    2.3245 H         1 <0>         0.1275
     38 H13         1.0306   -5.3924    2.2807 H         1 <0>         0.1234
     39 H14        -4.9641   -3.6477    0.4985 H         1 <0>         0.0959
     40 H15        -5.6433   -2.0070    0.6205 H         1 <0>         0.0888
     41 H16        -5.4345   -1.7916   -1.8777 H         1 <0>         0.1550
     42 H17        -3.6880   -3.3575   -2.3919 H         1 <0>         0.1344
     43 H18        -4.5348   -4.6834   -1.5581 H         1 <0>         0.0941
     44 H19        -7.3994   -2.3844    0.4117 H         1 <0>         0.4507
     45 H20        -8.6296   -3.3109   -0.2598 H         1 <0>         0.4330
     46 H21        -6.7181   -4.7040   -5.4434 H         1 <0>         0.4395
     47 H22        -8.2261   -4.5286   -4.7238 H         1 <0>         0.4158
     48 H23        -8.3462   -4.1770   -2.3784 H         1 <0>         0.4313
@<TRIPOS>BOND
     1    1    2 1
     2    1   26 1
     3    1   27 1
     4    1   28 1
     5    2    3 1
     6    3    8 ar
     7    3    4 ar
     8    4    5 ar
     9    4   29 1
    10    5    6 ar
    11    5   30 1
    12    6    7 ar
    13    6   17 1
    14    7    8 ar
    15    7   31 1
    16    8    9 1
    17    9   10 1
    18   10   11 1
    19   10   32 1
    20   10   33 1
    21   11   16 ar
    22   11   12 ar
    23   12   13 ar
    24   12   34 1
    25   13   14 ar
    26   13   35 1
    27   14   15 ar
    28   14   36 1
    29   15   16 ar
    30   15   37 1
    31   16   38 1
    32   17   18 1
    33   17   39 1
    34   17   40 1
    35   18   23 1
    36   18   19 1
    37   18   41 1
    38   19   20 1
    39   19   42 1
    40   19   43 1
    41   20   21 2
    42   21   22 1
    43   21   25 1
    44   22   23 2
    45   22   48 1
    46   23   24 1
    47   24   44 1
    48   24   45 1
    49   25   46 1
    50   25   47 1
@<TRIPOS>MOLECULE
CHEMBL329985
   44    46     0     0     0
SMALL
USER_CHARGES

@<TRIPOS>ATOM
      1 C1          2.7877    3.0782    0.0357 C.3       1 <0>        -0.1423
      2 C2          2.6570    1.5773    0.3025 C.3       1 <0>        -0.0387
      3 C3          3.6923    1.1527    1.3459 C.3       1 <0>        -0.1411
      4 C4          1.2517    1.2727    0.8251 C.3       1 <0>        -0.1494
      5 C5          2.8928    0.8172   -0.9773 C.ar      1 <0>        -0.0173
      6 C6          1.8971    0.0068   -1.4917 C.ar      1 <0>        -0.1292
      7 C7          2.1098   -0.6915   -2.6638 C.ar      1 <0>        -0.0516
      8 C8          3.3258   -0.5788   -3.3269 C.ar      1 <0>        -0.1928
      9 C9          4.3238    0.2368   -2.8073 C.ar      1 <0>        -0.0557
     10 C10         4.1022    0.9362   -1.6375 C.ar      1 <0>        -0.1233
     11 S1          3.6019   -1.4683   -4.8226 S.3       1 <0>         0.0670
     12 C11         4.4073   -2.9450   -4.2978 C.ar      1 <0>        -0.0254
     13 C12         4.5698   -3.2128   -2.9493 C.ar      1 <0>        -0.1351
     14 C13         5.2034   -4.3743   -2.5303 C.ar      1 <0>         0.0027
     15 C14         5.6823   -5.2817   -3.4312 C.ar      1 <0>        -0.1587
     16 C15         5.5373   -5.0468   -4.8038 C.ar      1 <0>         0.2161
     17 C16         4.8874   -3.8680   -5.2437 C.ar      1 <0>        -0.1776
     18 C17         4.7479   -3.6565   -6.6346 C.ar      1 <0>         0.5708
     19 N1          5.2275   -4.5746   -7.4624 N.ar      1 <0>        -0.5794
     20 C18         5.8270   -5.6715   -7.0085 C.ar      1 <0>         0.6854
     21 N2          5.9941   -5.9128   -5.7220 N.ar      1 <0>        -0.5786
     22 N3          6.3057   -6.5919   -7.9231 N.pl3     1 <0>        -0.7869
     23 N4          4.1280   -2.5237   -7.1183 N.pl3     1 <0>        -0.7985
     24 H1          3.7889    3.2952   -0.3366 H         1 <0>         0.0592
     25 H2          2.0501    3.3807   -0.7077 H         1 <0>         0.0591
     26 H3          2.6172    3.6279    0.9613 H         1 <0>         0.0666
     27 H4          3.5218    1.7025    2.2715 H         1 <0>         0.0665
     28 H5          3.5992    0.0835    1.5360 H         1 <0>         0.0575
     29 H6          4.6935    1.3698    0.9736 H         1 <0>         0.0588
     30 H7          0.5141    1.5751    0.0817 H         1 <0>         0.0614
     31 H8          1.1586    0.2034    1.0151 H         1 <0>         0.0604
     32 H9          1.0812    1.8224    1.7507 H         1 <0>         0.0660
     33 H10         0.9523   -0.0803   -0.9759 H         1 <0>         0.1405
     34 H11         1.3321   -1.3247   -3.0646 H         1 <0>         0.1351
     35 H12         5.2702    0.3265   -3.3199 H         1 <0>         0.1331
     36 H13         4.8759    1.5734   -1.2353 H         1 <0>         0.1346
     37 H14         4.2002   -2.5109   -2.2164 H         1 <0>         0.1496
     38 H15         5.3201   -4.5635   -1.4734 H         1 <0>         0.1571
     39 H16         6.1728   -6.1795   -3.0854 H         1 <0>         0.1586
     40 H17         6.2009   -6.4305   -8.8738 H         1 <0>         0.4454
     41 H18         6.7463   -7.3989   -7.6139 H         1 <0>         0.4308
     42 H19         4.3335   -1.6569   -6.7345 H         1 <0>         0.4266
     43 H20         3.4865   -2.5936   -7.8425 H         1 <0>         0.4312
     44 H21         6.4382   -6.7271   -5.4379 H         1 <0>         0.4414
@<TRIPOS>BOND
     1    1    2 1
     2    1   24 1
     3    1   25 1
     4    1   26 1
     5    2    3 1
     6    2    4 1
     7    2    5 1
     8    3   27 1
     9    3   28 1
    10    3   29 1
    11    4   30 1
    12    4   31 1
    13    4   32 1
    14    5   10 ar
    15    5    6 ar
    16    6    7 ar
    17    6   33 1
    18    7    8 ar
    19    7   34 1
    20    8    9 ar
    21    8   11 1
    22    9   10 ar
    23    9   35 1
    24   10   36 1
    25   11   12 1
    26   12   17 ar
    27   12   13 ar
    28   13   14 ar
    29   13   37 1
    30   14   15 ar
    31   14   38 1
    32   15   16 ar
    33   15   39 1
    34   16   21 ar
    35   16   17 ar
    36   17   18 ar
    37   18   19 ar
    38   18   23 1
    39   19   20 ar
    40   20   21 ar
    41   20   22 1
    42   21   44 1
    43   22   40 1
    44   22   41 1
    45   23   42 1
    46   23   43 1
@<TRIPOS>MOLECULE
CHEMBL329985__1
   43    45     0     0     0
SMALL
USER_CHARGES

@<TRIPOS>ATOM
      1 C1          2.7877    3.0782    0.0357 C.3       1 <0>        -0.1400
      2 C2          2.6570    1.5773    0.3025 C.3       1 <0>        -0.0351
      3 C3          3.6923    1.1527    1.3459 C.3       1 <0>        -0.1401
      4 C4          1.2517    1.2727    0.8251 C.3       1 <0>        -0.1469
      5 C5          2.8928    0.8172   -0.9773 C.ar      1 <0>        -0.0350
      6 C6          1.8971    0.0068   -1.4917 C.ar      1 <0>        -0.1315
      7 C7          2.1098   -0.6915   -2.6638 C.ar      1 <0>        -0.0579
      8 C8          3.3258   -0.5788   -3.3269 C.ar      1 <0>        -0.1701
      9 C9          4.3238    0.2368   -2.8073 C.ar      1 <0>        -0.0608
     10 C10         4.1022    0.9362   -1.6375 C.ar      1 <0>        -0.1255
     11 S1          3.6019   -1.4683   -4.8226 S.3       1 <0>         0.0212
     12 C11         4.4073   -2.9450   -4.2978 C.ar      1 <0>        -0.0360
     13 C12         4.5698   -3.2128   -2.9493 C.ar      1 <0>        -0.1584
     14 C13         5.2034   -4.3743   -2.5303 C.ar      1 <0>        -0.0461
     15 C14         5.6823   -5.2817   -3.4312 C.ar      1 <0>        -0.1330
     16 C15         5.5373   -5.0468   -4.8038 C.ar      1 <0>         0.2425
     17 C16         4.8874   -3.8680   -5.2437 C.ar      1 <0>        -0.2094
     18 C17         4.7479   -3.6565   -6.6346 C.ar      1 <0>         0.5100
     19 N1          5.2275   -4.5746   -7.4624 N.ar      1 <0>        -0.6114
     20 C18         5.8270   -5.6715   -7.0085 C.ar      1 <0>         0.6039
     21 N2          5.9941   -5.9128   -5.7220 N.ar      1 <0>        -0.5975
     22 N3          6.3057   -6.5919   -7.9231 N.pl3     1 <0>        -0.8183
     23 N4          4.1280   -2.5237   -7.1183 N.pl3     1 <0>        -0.8367
     24 H1          3.7889    3.2952   -0.3366 H         1 <0>         0.0583
     25 H2          2.0501    3.3807   -0.7077 H         1 <0>         0.0576
     26 H3          2.6172    3.6279    0.9613 H         1 <0>         0.0619
     27 H4          3.5218    1.7025    2.2715 H         1 <0>         0.0619
     28 H5          3.5992    0.0835    1.5360 H         1 <0>         0.0576
     29 H6          4.6935    1.3698    0.9736 H         1 <0>         0.0582
     30 H7          0.5141    1.5751    0.0817 H         1 <0>         0.0601
     31 H8          1.1586    0.2034    1.0151 H         1 <0>         0.0600
     32 H9          1.0812    1.8224    1.7507 H         1 <0>         0.0614
     33 H10         0.9523   -0.0803   -0.9759 H         1 <0>         0.1338
     34 H11         1.3321   -1.3247   -3.0646 H         1 <0>         0.1314
     35 H12         5.2702    0.3265   -3.3199 H         1 <0>         0.1299
     36 H13         4.8759    1.5734   -1.2353 H         1 <0>         0.1279
     37 H14         4.2002   -2.5109   -2.2164 H         1 <0>         0.1275
     38 H15         5.3201   -4.5635   -1.4734 H         1 <0>         0.1328
     39 H16         6.1728   -6.1795   -3.0854 H         1 <0>         0.1391
     40 H17         6.2009   -6.4305   -8.8738 H         1 <0>         0.4137
     41 H18         6.7463   -7.3989   -7.6139 H         1 <0>         0.4161
     42 H19         4.3335   -1.6569   -6.7345 H         1 <0>         0.4113
     43 H20         3.4865   -2.5936   -7.8425 H         1 <0>         0.4115
@<TRIPOS>BOND
     1    1    2 1
     2    1   24 1
     3    1   25 1
     4    1   26 1
     5    2    3 1
     6    2    4 1
     7    2    5 1
     8    3   27 1
     9    3   28 1
    10    3   29 1
    11    4   30 1
    12    4   31 1
    13    4   32 1
    14    5   10 ar
    15    5    6 ar
    16    6    7 ar
    17    6   33 1
    18    7    8 ar
    19    7   34 1
    20    8    9 ar
    21    8   11 1
    22    9   10 ar
    23    9   35 1
    24   10   36 1
    25   11   12 1
    26   12   17 ar
    27   12   13 ar
    28   13   14 ar
    29   13   37 1
    30   14   15 ar
    31   14   38 1
    32   15   16 ar
    33   15   39 1
    34   16   21 ar
    35   16   17 ar
    36   17   18 ar
    37   18   19 ar
    38   18   23 1
    39   19   20 ar
    40   20   21 ar
    41   20   22 1
    42   22   40 1
    43   22   41 1
    44   23   42 1
    45   23   43 1
@<TRIPOS>MOLECULE
CHEMBL283173
   46    48     0     0     0
SMALL
USER_CHARGES

@<TRIPOS>ATOM
      1 C1          2.5362   -0.7496   -0.3547 C.3       1 <0>        -0.1714
      2 C2          1.1955   -1.3052    0.1298 C.3       1 <0>         0.4021
      3 N1          0.1946   -1.1820   -0.9364 N.pl3     1 <0>        -0.6961
      4 C3         -1.0587   -0.9582   -0.6429 C.cat     1 <0>         0.7285
      5 N2         -1.4743   -0.7902    0.6238 N.2       1 <0>        -0.6380
      6 C4         -0.6091   -0.5916    1.6013 C.2       1 <0>         0.7307
      7 N3          0.7297   -0.5331    1.2921 N.pl3     1 <0>        -0.5903
      8 C5          1.6184    0.2341    2.0570 C.ar      1 <0>         0.0739
      9 C6          1.7480    1.5951    1.8130 C.ar      1 <0>        -0.0760
     10 C7          2.6234    2.3513    2.5664 C.ar      1 <0>        -0.0893
     11 C8          3.3745    1.7506    3.5692 C.ar      1 <0>        -0.0591
     12 C9          3.2441    0.3890    3.8133 C.ar      1 <0>        -0.1260
     13 C10         2.3650   -0.3655    3.0627 C.ar      1 <0>        -0.0809
     14 S1          4.4924    2.7153    4.5306 S.3       1 <0>        -0.0702
     15 C11         5.2246    1.5204    5.6824 C.3       1 <0>        -0.0686
     16 C12         6.2134    2.2245    6.5754 C.ar      1 <0>        -0.0912
     17 C13         7.5381    2.3271    6.1941 C.ar      1 <0>        -0.0984
     18 C14         8.4451    2.9730    7.0133 C.ar      1 <0>        -0.1179
     19 C15         8.0273    3.5167    8.2136 C.ar      1 <0>        -0.1043
     20 C16         6.7024    3.4148    8.5945 C.ar      1 <0>        -0.1179
     21 C17         5.7945    2.7727    7.7733 C.ar      1 <0>        -0.0984
     22 N4         -1.0350   -0.4466    2.8925 N.pl3     1 <0>        -0.7700
     23 N5         -1.9840   -0.8928   -1.6651 N.pl3     1 <0>        -0.7926
     24 C18         1.3572   -2.7760    0.5189 C.3       1 <0>        -0.1807
     25 H1          3.2918   -0.9001    0.4163 H         1 <0>         0.1009
     26 H2          2.8371   -1.2687   -1.2647 H         1 <0>         0.0977
     27 H3          2.4347    0.3159   -0.5609 H         1 <0>         0.0830
     28 H4          1.1641    2.0619    1.0335 H         1 <0>         0.1314
     29 H5          2.7246    3.4095    2.3760 H         1 <0>         0.1428
     30 H6          3.8281   -0.0783    4.5924 H         1 <0>         0.1381
     31 H7          2.2606   -1.4231    3.2552 H         1 <0>         0.1364
     32 H8          4.4385    1.0742    6.2915 H         1 <0>         0.1007
     33 H9          5.7355    0.7393    5.1194 H         1 <0>         0.1007
     34 H10         7.8646    1.9024    5.2563 H         1 <0>         0.1250
     35 H11         9.4803    3.0526    6.7157 H         1 <0>         0.1286
     36 H12         8.7361    4.0207    8.8539 H         1 <0>         0.1282
     37 H13         6.3760    3.8393    9.5325 H         1 <0>         0.1286
     38 H14         4.7587    2.6964    8.0692 H         1 <0>         0.1249
     39 H15        -1.9754   -0.5486    3.1074 H         1 <0>         0.4403
     40 H16        -0.3967   -0.2415    3.5936 H         1 <0>         0.4299
     41 H17        -1.6999   -1.0123   -2.5849 H         1 <0>         0.4288
     42 H18        -2.9183   -0.7273   -1.4637 H         1 <0>         0.4406
     43 H19         2.0938   -2.8616    1.3179 H         1 <0>         0.0960
     44 H20         0.4003   -3.1681    0.8634 H         1 <0>         0.0715
     45 H21         1.6929   -3.3462   -0.3473 H         1 <0>         0.0966
     46 H22         0.4651   -1.2669   -1.8641 H         1 <0>         0.4313
@<TRIPOS>BOND
     1    1    2 1
     2    1   25 1
     3    1   26 1
     4    1   27 1
     5    2    7 1
     6    2    3 1
     7    2   24 1
     8    3    4 2
     9    3   46 1
    10    4    5 1
    11    4   23 1
    12    5    6 2
    13    6    7 1
    14    6   22 1
    15    7    8 1
    16    8   13 ar
    17    8    9 ar
    18    9   10 ar
    19    9   28 1
    20   10   11 ar
    21   10   29 1
    22   11   12 ar
    23   11   14 1
    24   12   13 ar
    25   12   30 1
    26   13   31 1
    27   14   15 1
    28   15   16 1
    29   15   32 1
    30   15   33 1
    31   16   21 ar
    32   16   17 ar
    33   17   18 ar
    34   17   34 1
    35   18   19 ar
    36   18   35 1
    37   19   20 ar
    38   19   36 1
    39   20   21 ar
    40   20   37 1
    41   21   38 1
    42   22   39 1
    43   22   40 1
    44   23   41 1
    45   23   42 1
    46   24   43 1
    47   24   44 1
    48   24   45 1
@<TRIPOS>MOLECULE
CHEMBL56129
   30    32     0     0     0
SMALL
USER_CHARGES

@<TRIPOS>ATOM
      1 C1         -0.0167    1.3779    0.0096 C.ar      1 <0>        -0.1022
      2 C2          1.1696    2.0885    0.0021 C.ar      1 <0>        -0.0948
      3 C3          2.3803    1.4160   -0.0135 C.ar      1 <0>         0.0265
      4 C4          2.3992    0.0230   -0.0212 C.ar      1 <0>         0.0362
      5 C5          1.2071   -0.6821   -0.0137 C.ar      1 <0>        -0.1000
      6 C6          0.0021   -0.0041    0.0020 C.ar      1 <0>        -0.0680
      7 C7         -1.2936   -0.7736    0.0102 C.3       1 <0>        -0.0111
      8 C8         -1.7390   -1.0225   -1.4078 C.ar      1 <0>        -0.3100
      9 C9         -2.6307   -0.1693   -2.0281 C.ar      1 <0>         0.2247
     10 N1         -3.0023   -0.4154   -3.2757 N.ar      1 <0>        -0.6052
     11 C10        -2.5310   -1.4654   -3.9322 C.ar      1 <0>         0.6026
     12 N2         -1.6751   -2.3074   -3.3733 N.ar      1 <0>        -0.6277
     13 C11        -1.2552   -2.1177   -2.1264 C.ar      1 <0>         0.4881
     14 N3         -0.3554   -2.9969   -1.5464 N.pl3     1 <0>        -0.8355
     15 N4         -2.9437   -1.6879   -5.2343 N.pl3     1 <0>        -0.8214
     16 O1          3.6984   -0.3954   -0.0364 O.3       1 <0>        -0.3091
     17 C12         4.4664    0.7501   -0.4501 C.3       1 <0>         0.2132
     18 O2          3.6676    1.8697   -0.0238 O.3       1 <0>        -0.3087
     19 H1         -0.9598    1.9039    0.0259 H         1 <0>         0.1402
     20 H2          1.1520    3.1683    0.0081 H         1 <0>         0.1371
     21 H3          1.2188   -1.7620   -0.0196 H         1 <0>         0.1280
     22 H4         -1.1467   -1.7271    0.5176 H         1 <0>         0.0771
     23 H5         -2.0555   -0.1967    0.5345 H         1 <0>         0.0926
     24 H6         -3.0210    0.6892   -1.5016 H         1 <0>         0.1651
     25 H7         -0.0569   -2.8541   -0.6346 H         1 <0>         0.4091
     26 H8         -0.0239   -3.7554   -2.0520 H         1 <0>         0.4069
     27 H9         -3.5705   -1.0790   -5.6552 H         1 <0>         0.4154
     28 H10        -2.6062   -2.4529   -5.7260 H         1 <0>         0.4131
     29 H11         5.4365    0.7605    0.0468 H         1 <0>         0.1332
     30 H12         4.5896    0.7578   -1.5331 H         1 <0>         0.0846
@<TRIPOS>BOND
     1    1    6 ar
     2    1    2 ar
     3    1   19 1
     4    2    3 ar
     5    2   20 1
     6    3   18 1
     7    3    4 ar
     8    4    5 ar
     9    4   16 1
    10    5    6 ar
    11    5   21 1
    12    6    7 1
    13    7    8 1
    14    7   22 1
    15    7   23 1
    16    8   13 ar
    17    8    9 ar
    18    9   10 ar
    19    9   24 1
    20   10   11 ar
    21   11   12 ar
    22   11   15 1
    23   12   13 ar
    24   13   14 1
    25   14   25 1
    26   14   26 1
    27   15   27 1
    28   15   28 1
    29   16   17 1
    30   17   18 1
    31   17   29 1
    32   17   30 1
@<TRIPOS>MOLECULE
CHEMBL56129__1
   31    33     0     0     0
SMALL
USER_CHARGES

@<TRIPOS>ATOM
      1 C1         -0.0167    1.3779    0.0096 C.ar      1 <0>        -0.0984
      2 C2          1.1696    2.0885    0.0021 C.ar      1 <0>        -0.0945
      3 C3          2.3803    1.4160   -0.0135 C.ar      1 <0>         0.0449
      4 C4          2.3992    0.0230   -0.0212 C.ar      1 <0>         0.0431
      5 C5          1.2071   -0.6821   -0.0137 C.ar      1 <0>        -0.1025
      6 C6          0.0021   -0.0041    0.0020 C.ar      1 <0>        -0.0966
      7 C7         -1.2936   -0.7736    0.0102 C.3       1 <0>        -0.0236
      8 C8         -1.7390   -1.0225   -1.4078 C.ar      1 <0>        -0.2243
      9 C9         -2.6307   -0.1693   -2.0281 C.ar      1 <0>         0.2103
     10 N1         -3.0023   -0.4154   -3.2757 N.ar      1 <0>        -0.5702
     11 C10        -2.5313   -1.4656   -3.9321 C.ar      1 <0>         0.6620
     12 N2         -1.6755   -2.3077   -3.3731 N.ar      1 <0>        -0.5735
     13 C11        -1.2552   -2.1177   -2.1264 C.ar      1 <0>         0.5355
     14 N3         -0.3554   -2.9969   -1.5464 N.pl3     1 <0>        -0.7777
     15 N4         -2.9444   -1.6884   -5.2340 N.pl3     1 <0>        -0.7916
     16 O1          3.6984   -0.3954   -0.0364 O.3       1 <0>        -0.3047
     17 C12         4.4664    0.7501   -0.4501 C.3       1 <0>         0.2123
     18 O2          3.6676    1.8697   -0.0238 O.3       1 <0>        -0.3025
     19 H1         -0.9598    1.9039    0.0259 H         1 <0>         0.1419
     20 H2          1.1520    3.1683    0.0081 H         1 <0>         0.1433
     21 H3          1.2188   -1.7620   -0.0196 H         1 <0>         0.1276
     22 H4         -1.1467   -1.7271    0.5176 H         1 <0>         0.0988
     23 H5         -2.0555   -0.1967    0.5345 H         1 <0>         0.1146
     24 H6         -3.0210    0.6892   -1.5016 H         1 <0>         0.2162
     25 H7         -0.0569   -2.8541   -0.6346 H         1 <0>         0.4288
     26 H8         -0.0239   -3.7554   -2.0520 H         1 <0>         0.4290
     27 H9         -3.5712   -1.0794   -5.6549 H         1 <0>         0.4309
     28 H10        -2.6072   -2.4536   -5.7256 H         1 <0>         0.4450
     29 H11         5.4365    0.7605    0.0468 H         1 <0>         0.1404
     30 H12         4.5896    0.7578   -1.5331 H         1 <0>         0.0905
     31 H13        -3.6283    0.1815   -3.7148 H         1 <0>         0.4451
@<TRIPOS>BOND
     1    1    6 ar
     2    1    2 ar
     3    1   19 1
     4    2    3 ar
     5    2   20 1
     6    3   18 1
     7    3    4 ar
     8    4    5 ar
     9    4   16 1
    10    5    6 ar
    11    5   21 1
    12    6    7 1
    13    7    8 1
    14    7   22 1
    15    7   23 1
    16    8   13 ar
    17    8    9 ar
    18    9   10 ar
    19    9   24 1
    20   10   11 ar
    21   10   31 1
    22   11   12 ar
    23   11   15 1
    24   12   13 ar
    25   13   14 1
    26   14   25 1
    27   14   26 1
    28   15   27 1
    29   15   28 1
    30   16   17 1
    31   17   18 1
    32   17   29 1
    33   17   30 1
@<TRIPOS>MOLECULE
CHEMBL147504
   52    55     0     0     0
SMALL
USER_CHARGES

@<TRIPOS>ATOM
      1 C1          0.6027    1.5059    0.0256 C.3       1 <0>        -0.1673
      2 C2          0.5978   -0.0011    0.0167 C.ar      1 <0>         0.0778
      3 C3          0.7711   -0.7002   -1.1492 C.ar      1 <0>        -0.1720
      4 C4          0.7631   -2.0894   -1.1308 C.ar      1 <0>         0.2399
      5 N1          0.5923   -2.7658   -0.0167 N.ar      1 <0>        -0.4989
      6 C5          0.4186   -2.1439    1.1496 C.ar      1 <0>         0.4069
      7 C6          0.4219   -0.7279    1.1996 C.ar      1 <0>        -0.2407
      8 C7          0.2403   -0.0941    2.4537 C.ar      1 <0>         0.5788
      9 N2          0.0801   -0.8575    3.5253 N.ar      1 <0>        -0.5786
     10 C8          0.0882   -2.1844    3.4357 C.ar      1 <0>         0.6994
     11 N3          0.2432   -2.8239    2.2916 N.ar      1 <0>        -0.5722
     12 N4         -0.0838   -2.9256    4.5891 N.pl3     1 <0>        -0.7775
     13 N5          0.2308    1.2796    2.5567 N.pl3     1 <0>        -0.8023
     14 C9          0.9696    0.0364   -2.4489 C.3       1 <0>         0.1688
     15 N6          2.3622    0.4797   -2.5512 N.pl3     1 <0>        -0.7448
     16 C10         2.7890    1.1895   -3.6779 C.ar      1 <0>         0.1869
     17 C11         1.8911    1.4788   -4.6966 C.ar      1 <0>        -0.1594
     18 C12         2.3091    2.1790   -5.8094 C.ar      1 <0>        -0.0948
     19 C13         3.6346    2.5971   -5.9134 C.ar      1 <0>        -0.0519
     20 C14         4.5376    2.3076   -4.8915 C.ar      1 <0>        -0.1529
     21 C15         4.1144    1.6111   -3.7746 C.ar      1 <0>         0.0644
     22 O1          4.9920    1.3321   -2.7737 O.3       1 <0>        -0.3254
     23 C16         6.3339    1.7945   -2.9397 C.3       1 <0>         0.0291
     24 C17         4.0842    3.3491   -7.1104 C.ar      1 <0>        -0.0435
     25 C18         5.4105    3.7631   -7.2190 C.ar      1 <0>        -0.1149
     26 C19         5.8233    4.4620   -8.3352 C.ar      1 <0>        -0.1154
     27 C20         4.9234    4.7517   -9.3450 C.ar      1 <0>        -0.1182
     28 C21         3.6057    4.3436   -9.2423 C.ar      1 <0>        -0.1150
     29 C22         3.1831    3.6392   -8.1333 C.ar      1 <0>        -0.1126
     30 H1          1.5940    1.8644    0.3030 H         1 <0>         0.1069
     31 H2          0.3472    1.8760   -0.9673 H         1 <0>         0.1067
     32 H3         -0.1295    1.8674    0.7476 H         1 <0>         0.1052
     33 H4          0.9004   -2.6280   -2.0567 H         1 <0>         0.1945
     34 H5         -0.2071   -2.4769    5.4402 H         1 <0>         0.4482
     35 H6         -0.0814   -3.8947    4.5477 H         1 <0>         0.4338
     36 H7         -0.4109    1.7180    3.1371 H         1 <0>         0.4308
     37 H8          0.8658    1.8084    2.0488 H         1 <0>         0.4363
     38 H9          0.7374   -0.6273   -3.2818 H         1 <0>         0.0837
     39 H10         0.3092    0.9030   -2.4798 H         1 <0>         0.0837
     40 H11         2.9882    0.2808   -1.8374 H         1 <0>         0.4044
     41 H12         0.8638    1.1549   -4.6179 H         1 <0>         0.1305
     42 H13         1.6090    2.4029   -6.6006 H         1 <0>         0.1296
     43 H14         5.5652    2.6304   -4.9703 H         1 <0>         0.1331
     44 H15         6.9275    1.5061   -2.0723 H         1 <0>         0.1000
     45 H16         6.7629    1.3500   -3.8377 H         1 <0>         0.0567
     46 H17         6.3347    2.8803   -3.0358 H         1 <0>         0.0564
     47 H18         6.1138    3.5377   -6.4310 H         1 <0>         0.1203
     48 H19         6.8508    4.7836   -8.4202 H         1 <0>         0.1247
     49 H20         5.2508    5.2988  -10.2167 H         1 <0>         0.1244
     50 H21         2.9072    4.5732  -10.0334 H         1 <0>         0.1256
     51 H22         2.1552    3.3169   -8.0564 H         1 <0>         0.1252
     52 H23         0.2412   -3.7938    2.2786 H         1 <0>         0.4460
@<TRIPOS>BOND
     1    1    2 1
     2    1   30 1
     3    1   31 1
     4    1   32 1
     5    2    7 ar
     6    2    3 ar
     7    3    4 ar
     8    3   14 1
     9    4    5 ar
    10    4   33 1
    11    5    6 ar
    12    6   11 ar
    13    6    7 ar
    14    7    8 ar
    15    8    9 ar
    16    8   13 1
    17    9   10 ar
    18   10   11 ar
    19   10   12 1
    20   11   52 1
    21   12   34 1
    22   12   35 1
    23   13   36 1
    24   13   37 1
    25   14   15 1
    26   14   38 1
    27   14   39 1
    28   15   16 1
    29   15   40 1
    30   16   21 ar
    31   16   17 ar
    32   17   18 ar
    33   17   41 1
    34   18   19 ar
    35   18   42 1
    36   19   20 ar
    37   19   24 1
    38   20   21 ar
    39   20   43 1
    40   21   22 1
    41   22   23 1
    42   23   44 1
    43   23   45 1
    44   23   46 1
    45   24   29 ar
    46   24   25 ar
    47   25   26 ar
    48   25   47 1
    49   26   27 ar
    50   26   48 1
    51   27   28 ar
    52   27   49 1
    53   28   29 ar
    54   28   50 1
    55   29   51 1
@<TRIPOS>MOLECULE
CHEMBL147504__1
   51    54     0     0     0
SMALL
USER_CHARGES

@<TRIPOS>ATOM
      1 C1          0.6027    1.5059    0.0256 C.3       1 <0>        -0.1536
      2 C2          0.5978   -0.0011    0.0167 C.ar      1 <0>         0.0607
      3 C3          0.7711   -0.7002   -1.1492 C.ar      1 <0>        -0.2162
      4 C4          0.7631   -2.0894   -1.1308 C.ar      1 <0>         0.2103
      5 N1          0.5923   -2.7658   -0.0167 N.ar      1 <0>        -0.4898
      6 C5          0.4186   -2.1439    1.1496 C.ar      1 <0>         0.4163
      7 C6          0.4219   -0.7279    1.1996 C.ar      1 <0>        -0.2822
      8 C7          0.2403   -0.0941    2.4537 C.ar      1 <0>         0.5248
      9 N2          0.0801   -0.8575    3.5253 N.ar      1 <0>        -0.6173
     10 C8          0.0882   -2.1844    3.4357 C.ar      1 <0>         0.6249
     11 N3          0.2432   -2.8239    2.2916 N.ar      1 <0>        -0.5914
     12 N4         -0.0838   -2.9256    4.5891 N.pl3     1 <0>        -0.8105
     13 N5          0.2308    1.2796    2.5567 N.pl3     1 <0>        -0.8450
     14 C9          0.9696    0.0364   -2.4489 C.3       1 <0>         0.1783
     15 N6          2.3622    0.4797   -2.5512 N.pl3     1 <0>        -0.7372
     16 C10         2.7890    1.1895   -3.6779 C.ar      1 <0>         0.2020
     17 C11         1.8911    1.4788   -4.6966 C.ar      1 <0>        -0.1672
     18 C12         2.3091    2.1790   -5.8094 C.ar      1 <0>        -0.0896
     19 C13         3.6346    2.5971   -5.9134 C.ar      1 <0>        -0.0707
     20 C14         4.5376    2.3076   -4.8915 C.ar      1 <0>        -0.1499
     21 C15         4.1144    1.6111   -3.7746 C.ar      1 <0>         0.0562
     22 O1          4.9920    1.3321   -2.7737 O.3       1 <0>        -0.3220
     23 C16         6.3339    1.7945   -2.9397 C.3       1 <0>         0.0307
     24 C17         4.0842    3.3491   -7.1104 C.ar      1 <0>        -0.0317
     25 C18         5.4105    3.7631   -7.2190 C.ar      1 <0>        -0.1186
     26 C19         5.8233    4.4620   -8.3352 C.ar      1 <0>        -0.1156
     27 C20         4.9234    4.7517   -9.3450 C.ar      1 <0>        -0.1252
     28 C21         3.6057    4.3436   -9.2423 C.ar      1 <0>        -0.1151
     29 C22         3.1831    3.6392   -8.1333 C.ar      1 <0>        -0.1163
     30 H1          1.5940    1.8644    0.3030 H         1 <0>         0.0871
     31 H2          0.3472    1.8760   -0.9673 H         1 <0>         0.0857
     32 H3         -0.1295    1.8674    0.7476 H         1 <0>         0.0989
     33 H4          0.9004   -2.6280   -2.0567 H         1 <0>         0.1676
     34 H5         -0.2071   -2.4769    5.4402 H         1 <0>         0.4162
     35 H6         -0.0814   -3.8947    4.5477 H         1 <0>         0.4189
     36 H7         -0.4109    1.7180    3.1371 H         1 <0>         0.4107
     37 H8          0.8658    1.8084    2.0488 H         1 <0>         0.4186
     38 H9          0.7374   -0.6273   -3.2818 H         1 <0>         0.0729
     39 H10         0.3092    0.9030   -2.4798 H         1 <0>         0.0726
     40 H11         2.9882    0.2808   -1.8374 H         1 <0>         0.4054
     41 H12         0.8638    1.1549   -4.6179 H         1 <0>         0.1312
     42 H13         1.6090    2.4029   -6.6006 H         1 <0>         0.1265
     43 H14         5.5652    2.6304   -4.9703 H         1 <0>         0.1299
     44 H15         6.7629    1.3500   -3.8377 H         1 <0>         0.0541
     45 H16         6.3347    2.8803   -3.0358 H         1 <0>         0.0537
     46 H17         6.9275    1.5061   -2.0723 H         1 <0>         0.0985
     47 H18         6.1138    3.5377   -6.4310 H         1 <0>         0.1202
     48 H19         6.8508    4.7836   -8.4202 H         1 <0>         0.1223
     49 H20         5.2508    5.2988  -10.2167 H         1 <0>         0.1215
     50 H21         2.9072    4.5732  -10.0334 H         1 <0>         0.1233
     51 H22         2.1552    3.3169   -8.0564 H         1 <0>         0.1251
@<TRIPOS>BOND
     1    1    2 1
     2    1   30 1
     3    1   31 1
     4    1   32 1
     5    2    7 ar
     6    2    3 ar
     7    3    4 ar
     8    3   14 1
     9    4    5 ar
    10    4   33 1
    11    5    6 ar
    12    6   11 ar
    13    6    7 ar
    14    7    8 ar
    15    8    9 ar
    16    8   13 1
    17    9   10 ar
    18   10   11 ar
    19   10   12 1
    20   12   34 1
    21   12   35 1
    22   13   36 1
    23   13   37 1
    24   14   15 1
    25   14   38 1
    26   14   39 1
    27   15   16 1
    28   15   40 1
    29   16   21 ar
    30   16   17 ar
    31   17   18 ar
    32   17   41 1
    33   18   19 ar
    34   18   42 1
    35   19   20 ar
    36   19   24 1
    37   20   21 ar
    38   20   43 1
    39   21   22 1
    40   22   23 1
    41   23   44 1
    42   23   45 1
    43   23   46 1
    44   24   29 ar
    45   24   25 ar
    46   25   26 ar
    47   25   47 1
    48   26   27 ar
    49   26   48 1
    50   27   28 ar
    51   27   49 1
    52   28   29 ar
    53   28   50 1
    54   29   51 1
@<TRIPOS>MOLECULE
CHEMBL151611
   50    54     0     0     0
SMALL
USER_CHARGES

@<TRIPOS>ATOM
      1 C1          0.3231    1.0833    0.5818 C.3       1 <0>        -0.1921
      2 C2          0.6162   -0.3558    0.2440 C.ar      1 <0>         0.0922
      3 C3          0.9189   -0.7318   -1.0386 C.ar      1 <0>        -0.2363
      4 C4          1.1857   -2.0651   -1.3242 C.ar      1 <0>         0.2515
      5 N1          1.1573   -2.9916   -0.3922 N.ar      1 <0>        -0.4890
      6 C5          0.8695   -2.6896    0.8740 C.ar      1 <0>         0.4364
      7 C6          0.5930   -1.3469    1.2319 C.ar      1 <0>        -0.2420
      8 C7          0.2954   -1.0545    2.5860 C.ar      1 <0>         0.5774
      9 N2          0.2943   -2.0527    3.4579 N.ar      1 <0>        -0.5682
     10 C8          0.5642   -3.2993    3.0813 C.ar      1 <0>         0.7041
     11 N3          0.8373   -3.6267    1.8322 N.ar      1 <0>        -0.5753
     12 N4          0.5475   -4.2968    4.0373 N.pl3     1 <0>        -0.7616
     13 N5          0.0150    0.2336    2.9858 N.pl3     1 <0>        -0.7979
     14 C9          0.9618    0.2988   -2.1373 C.3       1 <0>         0.0330
     15 N6          2.2422    1.0169   -2.0853 N.4       1 <0>        -0.5022
     16 C10         2.3399    1.9275   -3.2339 C.3       1 <0>         0.1438
     17 C11         1.3424    3.0510   -3.0926 C.ar      1 <0>        -0.1662
     18 C12        -0.0339    3.0621   -3.0110 C.ar      1 <0>        -0.0915
     19 C13        -0.7105    4.2622   -2.8829 C.ar      1 <0>        -0.1026
     20 C14        -0.0080    5.4529   -2.8365 C.ar      1 <0>        -0.0779
     21 C15         1.3690    5.4512   -2.9175 C.ar      1 <0>        -0.0837
     22 C16         2.0583    4.2441   -3.0469 C.ar      1 <0>        -0.0264
     23 C17         3.5097    3.9539   -3.1535 C.ar      1 <0>        -0.0338
     24 C18         3.7005    2.5794   -3.2659 C.ar      1 <0>        -0.1679
     25 C19         4.9729    2.0608   -3.3792 C.ar      1 <0>        -0.0794
     26 C20         6.0680    2.9067   -3.3813 C.ar      1 <0>        -0.1016
     27 C21         5.8886    4.2737   -3.2696 C.ar      1 <0>        -0.0779
     28 C22         4.6191    4.8012   -3.1563 C.ar      1 <0>        -0.0849
     29 H1          1.2279    1.5593    0.9598 H         1 <0>         0.1144
     30 H2         -0.0152    1.6050   -0.3134 H         1 <0>         0.1047
     31 H3         -0.4555    1.1264    1.3435 H         1 <0>         0.1260
     32 H4          1.4226   -2.3478   -2.3392 H         1 <0>         0.2010
     33 H5          0.3419   -4.0805    4.9603 H         1 <0>         0.4534
     34 H6          0.7413   -5.2132    3.7855 H         1 <0>         0.4388
     35 H7         -0.6861    0.3980    3.6357 H         1 <0>         0.4366
     36 H8          0.5187    0.9763    2.6175 H         1 <0>         0.4348
     37 H9          0.8615   -0.1958   -3.1035 H         1 <0>         0.1597
     38 H10         0.1429    1.0058   -2.0043 H         1 <0>         0.1540
     39 H11         2.2952    1.5485   -1.2293 H         1 <0>         0.4256
     40 H12         2.1633    1.3819   -4.1609 H         1 <0>         0.1646
     41 H13        -0.5841    2.1335   -3.0473 H         1 <0>         0.1325
     42 H14        -1.7886    4.2694   -2.8193 H         1 <0>         0.1440
     43 H15        -0.5398    6.3876   -2.7368 H         1 <0>         0.1448
     44 H16         1.9136    6.3832   -2.8813 H         1 <0>         0.1399
     45 H17         5.1151    0.9937   -3.4661 H         1 <0>         0.1338
     46 H18         7.0642    2.4990   -3.4698 H         1 <0>         0.1445
     47 H19         6.7459    4.9305   -3.2709 H         1 <0>         0.1448
     48 H20         4.4835    5.8691   -3.0694 H         1 <0>         0.1393
     49 H21         1.0270   -4.5511    1.6076 H         1 <0>         0.4520
     50 H22         3.0016    0.3533   -2.1167 H         1 <0>         0.4309
@<TRIPOS>BOND
     1    1    2 1
     2    1   29 1
     3    1   30 1
     4    1   31 1
     5    2    7 ar
     6    2    3 ar
     7    3    4 ar
     8    3   14 1
     9    4    5 ar
    10    4   32 1
    11    5    6 ar
    12    6   11 ar
    13    6    7 ar
    14    7    8 ar
    15    8    9 ar
    16    8   13 1
    17    9   10 ar
    18   10   11 ar
    19   10   12 1
    20   11   49 1
    21   12   33 1
    22   12   34 1
    23   13   35 1
    24   13   36 1
    25   14   15 1
    26   14   37 1
    27   14   38 1
    28   15   16 1
    29   15   39 1
    30   15   50 1
    31   16   24 1
    32   16   17 1
    33   16   40 1
    34   17   22 ar
    35   17   18 ar
    36   18   19 ar
    37   18   41 1
    38   19   20 ar
    39   19   42 1
    40   20   21 ar
    41   20   43 1
    42   21   22 ar
    43   21   44 1
    44   22   23 1
    45   23   28 ar
    46   23   24 ar
    47   24   25 ar
    48   25   26 ar
    49   25   45 1
    50   26   27 ar
    51   26   46 1
    52   27   28 ar
    53   27   47 1
    54   28   48 1
@<TRIPOS>MOLECULE
CHEMBL151611__1
   48    52     0     0     0
SMALL
USER_CHARGES

@<TRIPOS>ATOM
      1 C1          0.6026    1.5059    0.0256 C.3       1 <0>        -0.1559
      2 C2          0.5976   -0.0011    0.0166 C.ar      1 <0>         0.0438
      3 C3          0.7709   -0.7002   -1.1493 C.ar      1 <0>        -0.1871
      4 C4          0.7628   -2.0894   -1.1308 C.ar      1 <0>         0.2112
      5 N1          0.5922   -2.7658   -0.0168 N.ar      1 <0>        -0.4895
      6 C5          0.4186   -2.1439    1.1496 C.ar      1 <0>         0.4117
      7 C6          0.4219   -0.7279    1.1996 C.ar      1 <0>        -0.2769
      8 C7          0.2403   -0.0941    2.4537 C.ar      1 <0>         0.5220
      9 N2          0.0802   -0.8575    3.5253 N.ar      1 <0>        -0.6172
     10 C8          0.0883   -2.1844    3.4358 C.ar      1 <0>         0.6223
     11 N3          0.2432   -2.8239    2.2916 N.ar      1 <0>        -0.5906
     12 N4         -0.0837   -2.9256    4.5891 N.pl3     1 <0>        -0.8119
     13 N5          0.2308    1.2796    2.5567 N.pl3     1 <0>        -0.8464
     14 C9          0.9693    0.0364   -2.4489 C.3       1 <0>         0.1038
     15 N6          2.3656    0.4809   -2.5516 N.3       1 <0>        -0.6606
     16 C10         2.5966    1.2045   -3.8090 C.3       1 <0>         0.1683
     17 C11         2.2995    2.6726   -3.6257 C.ar      1 <0>        -0.1295
     18 C12         1.1495    3.3475   -3.2751 C.ar      1 <0>        -0.0972
     19 C13         1.1586    4.7278   -3.1786 C.ar      1 <0>        -0.1147
     20 C14         2.3208    5.4333   -3.4336 C.ar      1 <0>        -0.1121
     21 C15         3.4759    4.7662   -3.7850 C.ar      1 <0>        -0.0974
     22 C16         3.4742    3.3737   -3.8843 C.ar      1 <0>        -0.0434
     23 C17         4.5530    2.4175   -4.2364 C.ar      1 <0>        -0.0618
     24 C18         4.0522    1.1190   -4.1978 C.ar      1 <0>        -0.0742
     25 C19         4.8710    0.0489   -4.4901 C.ar      1 <0>        -0.0795
     26 C20         6.1970    0.2620   -4.8234 C.ar      1 <0>        -0.1138
     27 C21         6.7038    1.5484   -4.8640 C.ar      1 <0>        -0.1161
     28 C22         5.8917    2.6249   -4.5735 C.ar      1 <0>        -0.0975
     29 H1          1.5939    1.8644    0.3027 H         1 <0>         0.0848
     30 H2          0.3468    1.8760   -0.9673 H         1 <0>         0.0805
     31 H3         -0.1295    1.8674    0.7477 H         1 <0>         0.1007
     32 H4          0.9001   -2.6280   -2.0568 H         1 <0>         0.1670
     33 H5         -0.2068   -2.4769    5.4402 H         1 <0>         0.4156
     34 H6         -0.0813   -3.8947    4.5477 H         1 <0>         0.4184
     35 H7         -0.4109    1.7180    3.1371 H         1 <0>         0.4099
     36 H8          0.8658    1.8084    2.0488 H         1 <0>         0.4177
     37 H9          0.7370   -0.6273   -3.2818 H         1 <0>         0.0895
     38 H10         0.3089    0.9030   -2.4798 H         1 <0>         0.0478
     39 H11         2.6248    1.0456   -1.7566 H         1 <0>         0.3468
     40 H12         1.9719    0.7900   -4.6003 H         1 <0>         0.1072
     41 H13         0.2410    2.7985   -3.0760 H         1 <0>         0.1217
     42 H14         0.2569    5.2551   -2.9041 H         1 <0>         0.1276
     43 H15         2.3237    6.5106   -3.3575 H         1 <0>         0.1275
     44 H16         4.3811    5.3209   -3.9836 H         1 <0>         0.1235
     45 H17         4.4772   -0.9563   -4.4586 H         1 <0>         0.1282
     46 H18         6.8372   -0.5773   -5.0517 H         1 <0>         0.1278
     47 H19         7.7394    1.7105   -5.1238 H         1 <0>         0.1264
     48 H20         6.2914    3.6277   -4.6063 H         1 <0>         0.1215
@<TRIPOS>BOND
     1    1    2 1
     2    1   29 1
     3    1   30 1
     4    1   31 1
     5    2    7 ar
     6    2    3 ar
     7    3    4 ar
     8    3   14 1
     9    4    5 ar
    10    4   32 1
    11    5    6 ar
    12    6   11 ar
    13    6    7 ar
    14    7    8 ar
    15    8    9 ar
    16    8   13 1
    17    9   10 ar
    18   10   11 ar
    19   10   12 1
    20   12   33 1
    21   12   34 1
    22   13   35 1
    23   13   36 1
    24   14   15 1
    25   14   37 1
    26   14   38 1
    27   15   16 1
    28   15   39 1
    29   16   24 1
    30   16   17 1
    31   16   40 1
    32   17   22 ar
    33   17   18 ar
    34   18   19 ar
    35   18   41 1
    36   19   20 ar
    37   19   42 1
    38   20   21 ar
    39   20   43 1
    40   21   22 ar
    41   21   44 1
    42   22   23 1
    43   23   28 ar
    44   23   24 ar
    45   24   25 ar
    46   25   26 ar
    47   25   45 1
    48   26   27 ar
    49   26   46 1
    50   27   28 ar
    51   27   47 1
    52   28   48 1
@<TRIPOS>MOLECULE
CHEMBL151611__2
   49    53     0     0     0
SMALL
USER_CHARGES

@<TRIPOS>ATOM
      1 C1          0.3231    1.0833    0.5818 C.3       1 <0>        -0.1786
      2 C2          0.6162   -0.3558    0.2440 C.ar      1 <0>         0.0806
      3 C3          0.9189   -0.7318   -1.0386 C.ar      1 <0>        -0.2805
      4 C4          1.1857   -2.0651   -1.3242 C.ar      1 <0>         0.2164
      5 N1          1.1573   -2.9916   -0.3922 N.ar      1 <0>        -0.4754
      6 C5          0.8695   -2.6896    0.8740 C.ar      1 <0>         0.4359
      7 C6          0.5930   -1.3469    1.2319 C.ar      1 <0>        -0.2883
      8 C7          0.2954   -1.0545    2.5860 C.ar      1 <0>         0.5298
      9 N2          0.2943   -2.0527    3.4579 N.ar      1 <0>        -0.6094
     10 C8          0.5642   -3.2993    3.0813 C.ar      1 <0>         0.6400
     11 N3          0.8373   -3.6267    1.8322 N.ar      1 <0>        -0.5887
     12 N4          0.5475   -4.2968    4.0373 N.pl3     1 <0>        -0.7962
     13 N5          0.0150    0.2336    2.9858 N.pl3     1 <0>        -0.8406
     14 C9          0.9618    0.2988   -2.1373 C.3       1 <0>         0.0450
     15 N6          2.2422    1.0169   -2.0853 N.4       1 <0>        -0.5012
     16 C10         2.3399    1.9275   -3.2339 C.3       1 <0>         0.1396
     17 C11         1.3424    3.0510   -3.0926 C.ar      1 <0>        -0.1571
     18 C12        -0.0339    3.0621   -3.0110 C.ar      1 <0>        -0.0877
     19 C13        -0.7105    4.2622   -2.8829 C.ar      1 <0>        -0.1033
     20 C14        -0.0080    5.4529   -2.8365 C.ar      1 <0>        -0.0830
     21 C15         1.3690    5.4512   -2.9175 C.ar      1 <0>        -0.0866
     22 C16         2.0583    4.2441   -3.0469 C.ar      1 <0>        -0.0301
     23 C17         3.5097    3.9539   -3.1535 C.ar      1 <0>        -0.0337
     24 C18         3.7005    2.5794   -3.2659 C.ar      1 <0>        -0.1612
     25 C19         4.9729    2.0608   -3.3792 C.ar      1 <0>        -0.0791
     26 C20         6.0680    2.9067   -3.3813 C.ar      1 <0>        -0.1034
     27 C21         5.8886    4.2737   -3.2696 C.ar      1 <0>        -0.0830
     28 C22         4.6191    4.8012   -3.1563 C.ar      1 <0>        -0.0878
     29 H1          1.2279    1.5593    0.9598 H         1 <0>         0.0947
     30 H2         -0.0152    1.6050   -0.3134 H         1 <0>         0.0840
     31 H3         -0.4555    1.1264    1.3435 H         1 <0>         0.1192
     32 H4          1.4226   -2.3478   -2.3392 H         1 <0>         0.1731
     33 H5          0.3419   -4.0805    4.9603 H         1 <0>         0.4223
     34 H6          0.7413   -5.2132    3.7855 H         1 <0>         0.4246
     35 H7         -0.6861    0.3980    3.6357 H         1 <0>         0.4171
     36 H8          0.5187    0.9763    2.6175 H         1 <0>         0.4177
     37 H9          0.8615   -0.1958   -3.1035 H         1 <0>         0.1463
     38 H10         0.1429    1.0058   -2.0043 H         1 <0>         0.1411
     39 H11         2.2952    1.5485   -1.2293 H         1 <0>         0.4241
     40 H12         2.1633    1.3819   -4.1609 H         1 <0>         0.1616
     41 H13        -0.5841    2.1335   -3.0473 H         1 <0>         0.1351
     42 H14        -1.7886    4.2694   -2.8193 H         1 <0>         0.1424
     43 H15        -0.5398    6.3876   -2.7368 H         1 <0>         0.1417
     44 H16         1.9136    6.3832   -2.8813 H         1 <0>         0.1369
     45 H17         5.1151    0.9937   -3.4661 H         1 <0>         0.1350
     46 H18         7.0642    2.4990   -3.4698 H         1 <0>         0.1425
     47 H19         6.7459    4.9305   -3.2709 H         1 <0>         0.1417
     48 H20         4.4835    5.8691   -3.0694 H         1 <0>         0.1367
     49 H21         3.0016    0.3533   -2.1167 H         1 <0>         0.4297
@<TRIPOS>BOND
     1    1    2 1
     2    1   29 1
     3    1   30 1
     4    1   31 1
     5    2    7 ar
     6    2    3 ar
     7    3    4 ar
     8    3   14 1
     9    4    5 ar
    10    4   32 1
    11    5    6 ar
    12    6   11 ar
    13    6    7 ar
    14    7    8 ar
    15    8    9 ar
    16    8   13 1
    17    9   10 ar
    18   10   11 ar
    19   10   12 1
    20   12   33 1
    21   12   34 1
    22   13   35 1
    23   13   36 1
    24   14   15 1
    25   14   37 1
    26   14   38 1
    27   15   16 1
    28   15   39 1
    29   15   49 1
    30   16   24 1
    31   16   17 1
    32   16   40 1
    33   17   22 ar
    34   17   18 ar
    35   18   19 ar
    36   18   41 1
    37   19   20 ar
    38   19   42 1
    39   20   21 ar
    40   20   43 1
    41   21   22 ar
    42   21   44 1
    43   22   23 1
    44   23   28 ar
    45   23   24 ar
    46   24   25 ar
    47   25   26 ar
    48   25   45 1
    49   26   27 ar
    50   26   46 1
    51   27   28 ar
    52   27   47 1
    53   28   48 1
@<TRIPOS>MOLECULE
CHEMBL151611__3
   49    53     0     0     0
SMALL
USER_CHARGES

@<TRIPOS>ATOM
      1 C1          0.6026    1.5059    0.0256 C.3       1 <0>        -0.1709
      2 C2          0.5976   -0.0011    0.0166 C.ar      1 <0>         0.0619
      3 C3          0.7709   -0.7002   -1.1493 C.ar      1 <0>        -0.1444
      4 C4          0.7628   -2.0894   -1.1308 C.ar      1 <0>         0.2408
      5 N1          0.5922   -2.7658   -0.0168 N.ar      1 <0>        -0.4980
      6 C5          0.4186   -2.1439    1.1496 C.ar      1 <0>         0.4011
      7 C6          0.4219   -0.7279    1.1996 C.ar      1 <0>        -0.2360
      8 C7          0.2403   -0.0941    2.4537 C.ar      1 <0>         0.5778
      9 N2          0.0802   -0.8575    3.5253 N.ar      1 <0>        -0.5789
     10 C8          0.0883   -2.1844    3.4358 C.ar      1 <0>         0.6983
     11 N3          0.2432   -2.8239    2.2916 N.ar      1 <0>        -0.5712
     12 N4         -0.0837   -2.9256    4.5891 N.pl3     1 <0>        -0.7787
     13 N5          0.2308    1.2796    2.5567 N.pl3     1 <0>        -0.8042
     14 C9          0.9693    0.0364   -2.4489 C.3       1 <0>         0.0889
     15 N6          2.3656    0.4809   -2.5516 N.3       1 <0>        -0.6612
     16 C10         2.5966    1.2045   -3.8090 C.3       1 <0>         0.1737
     17 C11         2.2995    2.6726   -3.6257 C.ar      1 <0>        -0.1375
     18 C12         1.1495    3.3475   -3.2751 C.ar      1 <0>        -0.1005
     19 C13         1.1586    4.7278   -3.1786 C.ar      1 <0>        -0.1145
     20 C14         2.3208    5.4333   -3.4336 C.ar      1 <0>        -0.1072
     21 C15         3.4759    4.7662   -3.7850 C.ar      1 <0>        -0.0946
     22 C16         3.4742    3.3737   -3.8843 C.ar      1 <0>        -0.0398
     23 C17         4.5530    2.4175   -4.2364 C.ar      1 <0>        -0.0619
     24 C18         4.0522    1.1190   -4.1978 C.ar      1 <0>        -0.0812
     25 C19         4.8710    0.0489   -4.4901 C.ar      1 <0>        -0.0803
     26 C20         6.1970    0.2620   -4.8234 C.ar      1 <0>        -0.1120
     27 C21         6.7038    1.5484   -4.8640 C.ar      1 <0>        -0.1114
     28 C22         5.8917    2.6249   -4.5735 C.ar      1 <0>        -0.0947
     29 H1          1.5939    1.8644    0.3027 H         1 <0>         0.1050
     30 H2          0.3468    1.8760   -0.9673 H         1 <0>         0.1012
     31 H3         -0.1295    1.8674    0.7477 H         1 <0>         0.1076
     32 H4          0.9001   -2.6280   -2.0568 H         1 <0>         0.1940
     33 H5         -0.2068   -2.4769    5.4402 H         1 <0>         0.4477
     34 H6         -0.0813   -3.8947    4.5477 H         1 <0>         0.4335
     35 H7         -0.4109    1.7180    3.1371 H         1 <0>         0.4302
     36 H8          0.8658    1.8084    2.0488 H         1 <0>         0.4355
     37 H9          0.7370   -0.6273   -3.2818 H         1 <0>         0.1027
     38 H10         0.3089    0.9030   -2.4798 H         1 <0>         0.0612
     39 H11         2.6248    1.0456   -1.7566 H         1 <0>         0.3469
     40 H12         1.9719    0.7900   -4.6003 H         1 <0>         0.1098
     41 H13         0.2410    2.7985   -3.0760 H         1 <0>         0.1192
     42 H14         0.2569    5.2551   -2.9041 H         1 <0>         0.1292
     43 H15         2.3237    6.5106   -3.3575 H         1 <0>         0.1305
     44 H16         4.3811    5.3209   -3.9836 H         1 <0>         0.1265
     45 H17         4.4772   -0.9563   -4.4586 H         1 <0>         0.1270
     46 H18         6.8372   -0.5773   -5.0517 H         1 <0>         0.1297
     47 H19         7.7394    1.7105   -5.1238 H         1 <0>         0.1294
     48 H20         6.2914    3.6277   -4.6063 H         1 <0>         0.1241
     49 H21         0.2412   -3.7938    2.2786 H         1 <0>         0.4455
@<TRIPOS>BOND
     1    1    2 1
     2    1   29 1
     3    1   30 1
     4    1   31 1
     5    2    7 ar
     6    2    3 ar
     7    3    4 ar
     8    3   14 1
     9    4    5 ar
    10    4   32 1
    11    5    6 ar
    12    6   11 ar
    13    6    7 ar
    14    7    8 ar
    15    8    9 ar
    16    8   13 1
    17    9   10 ar
    18   10   11 ar
    19   10   12 1
    20   11   49 1
    21   12   33 1
    22   12   34 1
    23   13   35 1
    24   13   36 1
    25   14   15 1
    26   14   37 1
    27   14   38 1
    28   15   16 1
    29   15   39 1
    30   16   24 1
    31   16   17 1
    32   16   40 1
    33   17   22 ar
    34   17   18 ar
    35   18   19 ar
    36   18   41 1
    37   19   20 ar
    38   19   42 1
    39   20   21 ar
    40   20   43 1
    41   21   22 ar
    42   21   44 1
    43   22   23 1
    44   23   28 ar
    45   23   24 ar
    46   24   25 ar
    47   25   26 ar
    48   25   45 1
    49   26   27 ar
    50   26   46 1
    51   27   28 ar
    52   27   47 1
    53   28   48 1
@<TRIPOS>MOLECULE
CHEMBL56101
   37    39     0     0     0
SMALL
USER_CHARGES

@<TRIPOS>ATOM
      1 C1         -0.0167    1.3790    0.0096 C.ar      1 <0>        -0.1194
      2 C2          1.1687    2.0919    0.0021 C.ar      1 <0>        -0.1170
      3 C3          2.3774    1.4258   -0.0129 C.ar      1 <0>        -0.1117
      4 C4          2.4022    0.0327   -0.0206 C.ar      1 <0>        -0.0457
      5 C5          1.2051   -0.6804   -0.0130 C.ar      1 <0>        -0.1122
      6 C6          0.0021   -0.0041    0.0020 C.ar      1 <0>        -0.1173
      7 C7          3.6987   -0.6889   -0.0373 C.ar      1 <0>        -0.0497
      8 C8          4.8958    0.0241   -0.0395 C.ar      1 <0>        -0.1051
      9 C9          6.0988   -0.6522   -0.0546 C.ar      1 <0>        -0.1098
     10 C10         6.1176   -2.0352   -0.0680 C.ar      1 <0>        -0.0745
     11 C11         4.9322   -2.7481   -0.0663 C.ar      1 <0>        -0.1154
     12 C12         3.7235   -2.0821   -0.0450 C.ar      1 <0>        -0.1055
     13 C13         7.4343   -2.7680   -0.0849 C.3       1 <0>        -0.0164
     14 C14         7.8839   -3.0259    1.3302 C.ar      1 <0>        -0.3066
     15 C15         8.7502   -2.1575    1.9654 C.ar      1 <0>         0.2229
     16 N1          9.1263   -2.4121    3.2100 N.ar      1 <0>        -0.6051
     17 C16         8.6833   -3.4847    3.8494 C.ar      1 <0>         0.6017
     18 N2          7.8523   -4.3418    3.2759 N.ar      1 <0>        -0.6273
     19 C17         7.4296   -4.1450    2.0311 C.ar      1 <0>         0.4875
     20 N3          6.5558   -5.0401    1.4358 N.pl3     1 <0>        -0.8356
     21 N4          9.0997   -3.7154    5.1489 N.pl3     1 <0>        -0.8217
     22 H1         -0.9603    1.9042    0.0260 H         1 <0>         0.1233
     23 H2          1.1483    3.1717    0.0077 H         1 <0>         0.1248
     24 H3          3.3023    1.9834   -0.0191 H         1 <0>         0.1252
     25 H4          1.2186   -1.7603   -0.0193 H         1 <0>         0.1244
     26 H5         -0.9264   -0.5558    0.0082 H         1 <0>         0.1244
     27 H6          4.8823    1.1040   -0.0299 H         1 <0>         0.1257
     28 H7          7.0273   -0.1005   -0.0564 H         1 <0>         0.1256
     29 H8          4.9525   -3.8278   -0.0771 H         1 <0>         0.1173
     30 H9          2.7986   -2.6396   -0.0392 H         1 <0>         0.1247
     31 H10         7.3150   -3.7174   -0.6069 H         1 <0>         0.0744
     32 H11         8.1807   -2.1622   -0.5986 H         1 <0>         0.0871
     33 H12         9.1173   -1.2807    1.4528 H         1 <0>         0.1635
     34 H13         6.2551   -4.8918    0.5256 H         1 <0>         0.4093
     35 H14         6.2447   -5.8151    1.9292 H         1 <0>         0.4063
     36 H15         9.7085   -3.0956    5.5804 H         1 <0>         0.4152
     37 H16         8.7829   -4.4969    5.6283 H         1 <0>         0.4129
@<TRIPOS>BOND
     1    1    6 ar
     2    1    2 ar
     3    1   22 1
     4    2    3 ar
     5    2   23 1
     6    3    4 ar
     7    3   24 1
     8    4    5 ar
     9    4    7 1
    10    5    6 ar
    11    5   25 1
    12    6   26 1
    13    7   12 ar
    14    7    8 ar
    15    8    9 ar
    16    8   27 1
    17    9   10 ar
    18    9   28 1
    19   10   11 ar
    20   10   13 1
    21   11   12 ar
    22   11   29 1
    23   12   30 1
    24   13   14 1
    25   13   31 1
    26   13   32 1
    27   14   19 ar
    28   14   15 ar
    29   15   16 ar
    30   15   33 1
    31   16   17 ar
    32   17   18 ar
    33   17   21 1
    34   18   19 ar
    35   19   20 1
    36   20   34 1
    37   20   35 1
    38   21   36 1
    39   21   37 1
@<TRIPOS>MOLECULE
CHEMBL56101__1
   38    40     0     0     0
SMALL
USER_CHARGES

@<TRIPOS>ATOM
      1 C1         -0.0167    1.3790    0.0096 C.ar      1 <0>        -0.1086
      2 C2          1.1687    2.0919    0.0021 C.ar      1 <0>        -0.1166
      3 C3          2.3774    1.4258   -0.0129 C.ar      1 <0>        -0.1066
      4 C4          2.4022    0.0327   -0.0206 C.ar      1 <0>        -0.0640
      5 C5          1.2051   -0.6804   -0.0130 C.ar      1 <0>        -0.1069
      6 C6          0.0021   -0.0041    0.0020 C.ar      1 <0>        -0.1166
      7 C7          3.6987   -0.6889   -0.0373 C.ar      1 <0>        -0.0243
      8 C8          4.8958    0.0241   -0.0395 C.ar      1 <0>        -0.1063
      9 C9          6.0988   -0.6522   -0.0546 C.ar      1 <0>        -0.1050
     10 C10         6.1176   -2.0352   -0.0680 C.ar      1 <0>        -0.1068
     11 C11         4.9322   -2.7481   -0.0663 C.ar      1 <0>        -0.1123
     12 C12         3.7235   -2.0821   -0.0450 C.ar      1 <0>        -0.1054
     13 C13         7.4343   -2.7680   -0.0849 C.3       1 <0>        -0.0289
     14 C14         7.8839   -3.0259    1.3302 C.ar      1 <0>        -0.2207
     15 C15         8.7502   -2.1575    1.9654 C.ar      1 <0>         0.2074
     16 N1          9.1263   -2.4121    3.2100 N.ar      1 <0>        -0.5699
     17 C16         8.6837   -3.4849    3.8493 C.ar      1 <0>         0.6615
     18 N2          7.8527   -4.3420    3.2758 N.ar      1 <0>        -0.5734
     19 C17         7.4296   -4.1450    2.0311 C.ar      1 <0>         0.5355
     20 N3          6.5558   -5.0401    1.4358 N.pl3     1 <0>        -0.7780
     21 N4          9.1004   -3.7158    5.1486 N.pl3     1 <0>        -0.7920
     22 H1         -0.9603    1.9042    0.0260 H         1 <0>         0.1276
     23 H2          1.1483    3.1717    0.0077 H         1 <0>         0.1282
     24 H3          3.3023    1.9834   -0.0191 H         1 <0>         0.1252
     25 H4          1.2186   -1.7603   -0.0193 H         1 <0>         0.1248
     26 H5         -0.9264   -0.5558    0.0082 H         1 <0>         0.1282
     27 H6          4.8823    1.1040   -0.0299 H         1 <0>         0.1316
     28 H7          7.0273   -0.1005   -0.0564 H         1 <0>         0.1272
     29 H8          4.9525   -3.8278   -0.0771 H         1 <0>         0.1166
     30 H9          2.7986   -2.6396   -0.0392 H         1 <0>         0.1312
     31 H10         7.3150   -3.7174   -0.6069 H         1 <0>         0.0960
     32 H11         8.1807   -2.1622   -0.5986 H         1 <0>         0.1090
     33 H12         9.1173   -1.2807    1.4528 H         1 <0>         0.2147
     34 H13         6.2551   -4.8918    0.5256 H         1 <0>         0.4289
     35 H14         6.2447   -5.8151    1.9292 H         1 <0>         0.4284
     36 H15         9.7092   -3.0960    5.5801 H         1 <0>         0.4307
     37 H16         8.7838   -4.4975    5.6278 H         1 <0>         0.4448
     38 H17         9.7346   -1.8047    3.6594 H         1 <0>         0.4447
@<TRIPOS>BOND
     1    1    6 ar
     2    1    2 ar
     3    1   22 1
     4    2    3 ar
     5    2   23 1
     6    3    4 ar
     7    3   24 1
     8    4    5 ar
     9    4    7 1
    10    5    6 ar
    11    5   25 1
    12    6   26 1
    13    7   12 ar
    14    7    8 ar
    15    8    9 ar
    16    8   27 1
    17    9   10 ar
    18    9   28 1
    19   10   11 ar
    20   10   13 1
    21   11   12 ar
    22   11   29 1
    23   12   30 1
    24   13   14 1
    25   13   31 1
    26   13   32 1
    27   14   19 ar
    28   14   15 ar
    29   15   16 ar
    30   15   33 1
    31   16   17 ar
    32   16   38 1
    33   17   18 ar
    34   17   21 1
    35   18   19 ar
    36   19   20 1
    37   20   34 1
    38   20   35 1
    39   21   36 1
    40   21   37 1
@<TRIPOS>MOLECULE
CHEMBL305177
   53    55     0     0     0
SMALL
USER_CHARGES

@<TRIPOS>ATOM
      1 C1         -0.0169    1.3937    0.0097 C.ar      1 <0>        -0.0194
      2 C2          1.1662    2.0965    0.0022 C.ar      1 <0>        -0.1976
      3 C3          2.3811    1.4169   -0.0131 C.ar      1 <0>         0.2091
      4 C4          2.4034    0.0249   -0.0208 C.ar      1 <0>        -0.1988
      5 C5          1.2237   -0.6836   -0.0138 C.ar      1 <0>        -0.0385
      6 C6          0.0021   -0.0041    0.0020 C.ar      1 <0>        -0.1494
      7 C7         -1.2644   -0.7605    0.0105 C.2       1 <0>         0.5489
      8 O1         -2.3263   -0.1682    0.0243 O.2       1 <0>        -0.5579
      9 N1         -1.2445   -2.1081    0.0031 N.am      1 <0>        -0.6750
     10 C8         -2.5022   -2.8593    0.0116 C.3       1 <0>         0.0727
     11 C9         -2.2637   -4.2464    0.6114 C.3       1 <0>        -0.0818
     12 C10        -1.8670   -4.1047    2.0823 C.3       1 <0>        -0.1765
     13 C11        -1.6321   -5.4710    2.6731 C.2       1 <0>         0.4901
     14 O2         -1.7693   -6.4659    1.9818 O.co2     1 <0>        -0.6957
     15 O3         -1.3049   -5.5815    3.8424 O.co2     1 <0>        -0.7202
     16 C12        -3.0110   -3.0030   -1.3996 C.2       1 <0>         0.4967
     17 O4         -2.3006   -2.6873   -2.3389 O.co2     1 <0>        -0.6997
     18 O5         -4.1331   -3.4348   -1.6021 O.co2     1 <0>        -0.6982
     19 N2          3.5749    2.1299   -0.0211 N.pl3     1 <0>        -0.7497
     20 C13         4.8542    1.4162   -0.0371 C.3       1 <0>         0.1571
     21 C14         5.9850    2.4124   -0.0431 C.ar      1 <0>        -0.0945
     22 C15         6.4846    2.8765   -1.2565 C.ar      1 <0>        -0.0012
     23 C16         7.5071    3.7774   -1.2966 C.ar      1 <0>        -0.1461
     24 C17         8.0650    4.2449   -0.0988 C.ar      1 <0>         0.2026
     25 C18         7.5549    3.7717    1.1345 C.ar      1 <0>        -0.1937
     26 C19         6.5015    2.8511    1.1408 C.ar      1 <0>        -0.0194
     27 C20         8.1343    4.2589    2.3327 C.ar      1 <0>         0.5643
     28 N3          9.1253    5.1336    2.2410 N.ar      1 <0>        -0.5997
     29 C21         9.5742    5.5518    1.0610 C.ar      1 <0>         0.6919
     30 N4          9.0715    5.1312   -0.0841 N.ar      1 <0>        -0.5836
     31 N5         10.6113    6.4665    1.0331 N.pl3     1 <0>        -0.7925
     32 N6          7.6782    3.8339    3.5620 N.pl3     1 <0>        -0.7639
     33 H1         -0.9590    1.9215    0.0260 H         1 <0>         0.1360
     34 H2          1.1522    3.1764    0.0078 H         1 <0>         0.1196
     35 H3          3.3474   -0.4995   -0.0326 H         1 <0>         0.1217
     36 H4          1.2416   -1.7634   -0.0204 H         1 <0>         0.1311
     37 H5         -0.3974   -2.5806   -0.0078 H         1 <0>         0.3883
     38 H6         -3.2399   -2.3261    0.6112 H         1 <0>         0.0786
     39 H7         -3.1771   -4.8365    0.5367 H         1 <0>         0.0780
     40 H8         -1.4631   -4.7456    0.0656 H         1 <0>         0.0562
     41 H9         -0.9536   -3.5146    2.1570 H         1 <0>         0.0489
     42 H10        -2.6677   -3.6056    2.6281 H         1 <0>         0.0528
     43 H11         3.5606    3.0997   -0.0161 H         1 <0>         0.3965
     44 H12         4.9299    0.7860    0.8490 H         1 <0>         0.0798
     45 H13         4.9126    0.7950   -0.9309 H         1 <0>         0.0824
     46 H14         6.0559    2.5173   -2.1804 H         1 <0>         0.1599
     47 H15         7.8852    4.1283   -2.2455 H         1 <0>         0.1589
     48 H16         6.1026    2.4875    2.0762 H         1 <0>         0.1529
     49 H17        10.9957    6.7894    1.8630 H         1 <0>         0.4432
     50 H18        10.9543    6.7851    0.1835 H         1 <0>         0.4293
     51 H19         6.9517    3.1934    3.6148 H         1 <0>         0.4343
     52 H20         8.0837    4.1754    4.3743 H         1 <0>         0.4320
     53 H21         9.4323    5.4648   -0.9204 H         1 <0>         0.4392
@<TRIPOS>BOND
     1    1    6 ar
     2    1    2 ar
     3    1   33 1
     4    2    3 ar
     5    2   34 1
     6    3    4 ar
     7    3   19 1
     8    4    5 ar
     9    4   35 1
    10    5    6 ar
    11    5   36 1
    12    6    7 1
    13    7    8 2
    14    7    9 am
    15    9   10 1
    16    9   37 1
    17   10   11 1
    18   10   16 1
    19   10   38 1
    20   11   12 1
    21   11   39 1
    22   11   40 1
    23   12   13 1
    24   12   41 1
    25   12   42 1
    26   13   14 2
    27   13   15 1
    28   16   17 2
    29   16   18 1
    30   19   20 1
    31   19   43 1
    32   20   21 1
    33   20   44 1
    34   20   45 1
    35   21   26 ar
    36   21   22 ar
    37   22   23 ar
    38   22   46 1
    39   23   24 ar
    40   23   47 1
    41   24   30 ar
    42   24   25 ar
    43   25   26 ar
    44   25   27 ar
    45   26   48 1
    46   27   28 ar
    47   27   32 1
    48   28   29 ar
    49   29   30 ar
    50   29   31 1
    51   30   53 1
    52   31   49 1
    53   31   50 1
    54   32   51 1
    55   32   52 1
@<TRIPOS>MOLECULE
CHEMBL305177__1
   53    55     0     0     0
SMALL
USER_CHARGES

@<TRIPOS>ATOM
      1 C1         -0.0169    1.3937    0.0097 C.ar      1 <0>        -0.0191
      2 C2          1.1662    2.0965    0.0022 C.ar      1 <0>        -0.1977
      3 C3          2.3811    1.4169   -0.0131 C.ar      1 <0>         0.2099
      4 C4          2.4034    0.0249   -0.0208 C.ar      1 <0>        -0.1988
      5 C5          1.2237   -0.6836   -0.0138 C.ar      1 <0>        -0.0380
      6 C6          0.0021   -0.0041    0.0020 C.ar      1 <0>        -0.1513
      7 C7         -1.2644   -0.7605    0.0105 C.2       1 <0>         0.5442
      8 O1         -2.3263   -0.1682    0.0243 O.2       1 <0>        -0.5557
      9 N1         -1.2445   -2.1081    0.0031 N.am      1 <0>        -0.6757
     10 C8         -2.5022   -2.8593    0.0116 C.3       1 <0>         0.0735
     11 C9         -2.2758   -4.2399   -0.6078 C.3       1 <0>        -0.0830
     12 C10        -1.9084   -4.0824   -2.0846 C.3       1 <0>        -0.1764
     13 C11        -1.6854   -5.4422   -2.6946 C.2       1 <0>         0.4902
     14 O2         -1.8089   -6.4445   -2.0115 O.co2     1 <0>        -0.6963
     15 O3         -1.3815   -5.5401   -3.8713 O.co2     1 <0>        -0.7195
     16 C12        -2.9829   -3.0182    1.4310 C.2       1 <0>         0.4982
     17 O4         -4.1770   -3.0939    1.6654 O.co2     1 <0>        -0.6986
     18 O5         -2.1777   -3.0709    2.3450 O.co2     1 <0>        -0.7007
     19 N2          3.5749    2.1299   -0.0211 N.pl3     1 <0>        -0.7495
     20 C13         4.8542    1.4162   -0.0371 C.3       1 <0>         0.1569
     21 C14         5.9850    2.4124   -0.0431 C.ar      1 <0>        -0.0946
     22 C15         6.4846    2.8765   -1.2565 C.ar      1 <0>        -0.0011
     23 C16         7.5071    3.7774   -1.2966 C.ar      1 <0>        -0.1460
     24 C17         8.0650    4.2449   -0.0988 C.ar      1 <0>         0.2027
     25 C18         7.5549    3.7717    1.1345 C.ar      1 <0>        -0.1938
     26 C19         6.5015    2.8511    1.1408 C.ar      1 <0>        -0.0195
     27 C20         8.1343    4.2589    2.3327 C.ar      1 <0>         0.5643
     28 N3          9.1253    5.1336    2.2410 N.ar      1 <0>        -0.5997
     29 C21         9.5742    5.5518    1.0610 C.ar      1 <0>         0.6919
     30 N4          9.0715    5.1312   -0.0841 N.ar      1 <0>        -0.5836
     31 N5         10.6113    6.4665    1.0331 N.pl3     1 <0>        -0.7925
     32 N6          7.6782    3.8339    3.5620 N.pl3     1 <0>        -0.7641
     33 H1         -0.9590    1.9215    0.0260 H         1 <0>         0.1362
     34 H2          1.1522    3.1764    0.0078 H         1 <0>         0.1199
     35 H3          3.3474   -0.4995   -0.0326 H         1 <0>         0.1220
     36 H4          1.2416   -1.7634   -0.0204 H         1 <0>         0.1317
     37 H5         -0.3974   -2.5806   -0.0078 H         1 <0>         0.3897
     38 H6         -3.2516   -2.3197   -0.5676 H         1 <0>         0.0784
     39 H7         -1.4645   -4.7448   -0.0833 H         1 <0>         0.0599
     40 H8         -3.1876   -4.8309   -0.5212 H         1 <0>         0.0735
     41 H9         -2.7197   -3.5775   -2.6090 H         1 <0>         0.0531
     42 H10        -0.9966   -3.4914   -2.1711 H         1 <0>         0.0496
     43 H11         3.5606    3.0997   -0.0161 H         1 <0>         0.3966
     44 H12         4.9299    0.7860    0.8490 H         1 <0>         0.0797
     45 H13         4.9126    0.7950   -0.9309 H         1 <0>         0.0828
     46 H14         6.0559    2.5173   -2.1804 H         1 <0>         0.1600
     47 H15         7.8852    4.1283   -2.2455 H         1 <0>         0.1591
     48 H16         6.1026    2.4875    2.0762 H         1 <0>         0.1528
     49 H17        10.9957    6.7894    1.8630 H         1 <0>         0.4432
     50 H18        10.9543    6.7851    0.1835 H         1 <0>         0.4294
     51 H19         6.9517    3.1934    3.6148 H         1 <0>         0.4342
     52 H20         8.0837    4.1754    4.3743 H         1 <0>         0.4319
     53 H21         9.4323    5.4648   -0.9204 H         1 <0>         0.4393
@<TRIPOS>BOND
     1    1    6 ar
     2    1    2 ar
     3    1   33 1
     4    2    3 ar
     5    2   34 1
     6    3    4 ar
     7    3   19 1
     8    4    5 ar
     9    4   35 1
    10    5    6 ar
    11    5   36 1
    12    6    7 1
    13    7    8 2
    14    7    9 am
    15    9   10 1
    16    9   37 1
    17   10   11 1
    18   10   16 1
    19   10   38 1
    20   11   12 1
    21   11   39 1
    22   11   40 1
    23   12   13 1
    24   12   41 1
    25   12   42 1
    26   13   14 2
    27   13   15 1
    28   16   17 2
    29   16   18 1
    30   19   20 1
    31   19   43 1
    32   20   21 1
    33   20   44 1
    34   20   45 1
    35   21   26 ar
    36   21   22 ar
    37   22   23 ar
    38   22   46 1
    39   23   24 ar
    40   23   47 1
    41   24   30 ar
    42   24   25 ar
    43   25   26 ar
    44   25   27 ar
    45   26   48 1
    46   27   28 ar
    47   27   32 1
    48   28   29 ar
    49   29   30 ar
    50   29   31 1
    51   30   53 1
    52   31   49 1
    53   31   50 1
    54   32   51 1
    55   32   52 1
@<TRIPOS>MOLECULE
CHEMBL7737
   65    68     0     0     0
SMALL
USER_CHARGES

@<TRIPOS>ATOM
      1 C1         -0.0178    1.4608    0.0101 C.3       1 <0>         0.0925
      2 N1          0.0021   -0.0041    0.0020 N.pl3     1 <0>        -0.6202
      3 C2          0.0241   -0.7433    1.2666 C.3       1 <0>         0.1835
      4 C3         -1.3889   -1.0161    1.7137 C.ar      1 <0>         0.0243
      5 C4         -1.9892   -2.2351    1.3999 C.ar      1 <0>         0.1546
      6 N2         -3.2219   -2.4965    1.7797 N.ar      1 <0>        -0.4366
      7 C5         -3.9051   -1.5830    2.4739 C.ar      1 <0>         0.3743
      8 C6         -3.2902   -0.3458    2.7901 C.ar      1 <0>        -0.0921
      9 N3         -2.0425   -0.1038    2.4012 N.ar      1 <0>        -0.3709
     10 C7         -4.0706    0.6301    3.5527 C.ar      1 <0>         0.5437
     11 N4         -5.3055    0.2953    3.9004 N.ar      1 <0>        -0.6288
     12 C8         -5.8196   -0.8850    3.5693 C.ar      1 <0>         0.6384
     13 N5         -5.1609   -1.7987    2.8845 N.ar      1 <0>        -0.5993
     14 N6         -7.1130   -1.1692    3.9639 N.pl3     1 <0>        -0.8079
     15 N7         -3.5402    1.8539    3.8976 N.pl3     1 <0>        -0.7937
     16 C9          0.0000   -0.6928   -1.2059 C.ar      1 <0>         0.2284
     17 C10         0.0132   -2.0849   -1.2118 C.ar      1 <0>        -0.2109
     18 C11         0.0112   -2.7693   -2.4056 C.ar      1 <0>        -0.0107
     19 C12        -0.0041   -2.0653   -3.6133 C.ar      1 <0>        -0.1738
     20 C13        -0.0173   -0.6674   -3.6040 C.ar      1 <0>        -0.0349
     21 C14        -0.0210    0.0112   -2.4068 C.ar      1 <0>        -0.2017
     22 C15        -0.0058   -2.7960   -4.8948 C.2       1 <0>         0.5571
     23 O1          0.0061   -4.0119   -4.9015 O.2       1 <0>        -0.5464
     24 N8         -0.0205   -2.1158   -6.0583 N.am      1 <0>        -0.6948
     25 C16        -0.0222   -2.8414   -7.3310 C.3       1 <0>         0.0818
     26 C17         0.5711   -1.9524   -8.4257 C.3       1 <0>        -0.1226
     27 C18         2.0446   -1.6789   -8.1177 C.3       1 <0>         0.1193
     28 N9          2.6128   -0.8276   -9.1659 N.am      1 <0>        -0.7196
     29 C19         3.9064   -0.4545   -9.1036 C.2       1 <0>         0.5535
     30 O2          4.6017   -0.8244   -8.1776 O.2       1 <0>        -0.5341
     31 C20         4.4795    0.4042  -10.1610 C.ar      1 <0>        -0.1255
     32 C21         3.6819    0.8353  -11.2227 C.ar      1 <0>        -0.0738
     33 C22         4.2222    1.6368  -12.2061 C.ar      1 <0>        -0.1169
     34 C23         5.5535    2.0139  -12.1424 C.ar      1 <0>        -0.0147
     35 C24         6.3497    1.5893  -11.0915 C.ar      1 <0>        -0.1187
     36 C25         5.8192    0.7923  -10.0991 C.ar      1 <0>        -0.0483
     37 Cl1         6.2269    3.0222  -13.3848 Cl        1 <0>        -0.0659
     38 C26        -1.4367   -3.2117   -7.6962 C.2       1 <0>         0.4929
     39 O3         -2.3634   -2.5041   -7.3399 O.co2     1 <0>        -0.6875
     40 O4         -1.6542   -4.2188   -8.3480 O.co2     1 <0>        -0.6919
     41 H1          1.0048    1.8381    0.0023 H         1 <0>         0.0521
     42 H2         -0.5450    1.8219   -0.8730 H         1 <0>         0.0685
     43 H3         -0.5280    1.8123    0.9069 H         1 <0>         0.0689
     44 H4          0.5496   -1.6879    1.1262 H         1 <0>         0.1019
     45 H5          0.5371   -0.1514    2.0246 H         1 <0>         0.0972
     46 H6         -1.4361   -2.9733    0.8382 H         1 <0>         0.1797
     47 H7         -7.6209   -0.5150    4.4689 H         1 <0>         0.4159
     48 H8         -7.5132   -2.0229    3.7358 H         1 <0>         0.4199
     49 H9         -2.6346    2.0814    3.6347 H         1 <0>         0.4247
     50 H10        -4.0722    2.4880    4.4032 H         1 <0>         0.4150
     51 H11         0.0253   -2.6282   -0.2785 H         1 <0>         0.1243
     52 H12         0.0217   -3.8493   -2.4096 H         1 <0>         0.1364
     53 H13        -0.0287   -0.1208   -4.5353 H         1 <0>         0.1244
     54 H14        -0.0359    1.0910   -2.3989 H         1 <0>         0.1255
     55 H15        -0.0300   -1.1459   -6.0530 H         1 <0>         0.3897
     56 H16         0.5768   -3.7469   -7.2338 H         1 <0>         0.0873
     57 H17         0.4888   -2.4573   -9.3882 H         1 <0>         0.0848
     58 H18         0.0264   -1.0090   -8.4626 H         1 <0>         0.0727
     59 H19         2.1270   -1.1740   -7.1552 H         1 <0>         0.0709
     60 H20         2.5893   -2.6223   -8.0808 H         1 <0>         0.0721
     61 H21         2.0580   -0.5325   -9.9048 H         1 <0>         0.3999
     62 H22         2.6440    0.5413  -11.2738 H         1 <0>         0.1386
     63 H23         3.6062    1.9709  -13.0279 H         1 <0>         0.1407
     64 H24         7.3872    1.8863  -11.0473 H         1 <0>         0.1403
     65 H25         6.4399    0.4653   -9.2780 H         1 <0>         0.1467
@<TRIPOS>BOND
     1    1    2 1
     2    1   41 1
     3    1   42 1
     4    1   43 1
     5    2    3 1
     6    2   16 1
     7    3    4 1
     8    3   44 1
     9    3   45 1
    10    4    9 ar
    11    4    5 ar
    12    5    6 ar
    13    5   46 1
    14    6    7 ar
    15    7   13 ar
    16    7    8 ar
    17    8    9 ar
    18    8   10 ar
    19   10   11 ar
    20   10   15 1
    21   11   12 ar
    22   12   13 ar
    23   12   14 1
    24   14   47 1
    25   14   48 1
    26   15   49 1
    27   15   50 1
    28   16   21 ar
    29   16   17 ar
    30   17   18 ar
    31   17   51 1
    32   18   19 ar
    33   18   52 1
    34   19   20 ar
    35   19   22 1
    36   20   21 ar
    37   20   53 1
    38   21   54 1
    39   22   23 2
    40   22   24 am
    41   24   25 1
    42   24   55 1
    43   25   26 1
    44   25   38 1
    45   25   56 1
    46   26   27 1
    47   26   57 1
    48   26   58 1
    49   27   28 1
    50   27   59 1
    51   27   60 1
    52   28   29 am
    53   28   61 1
    54   29   30 2
    55   29   31 1
    56   31   36 ar
    57   31   32 ar
    58   32   33 ar
    59   32   62 1
    60   33   34 ar
    61   33   63 1
    62   34   35 ar
    63   34   37 1
    64   35   36 ar
    65   35   64 1
    66   36   65 1
    67   38   39 2
    68   38   40 1
@<TRIPOS>MOLECULE
CHEMBL7737__1
   65    68     0     0     0
SMALL
USER_CHARGES

@<TRIPOS>ATOM
      1 C1         -0.0178    1.4608    0.0101 C.3       1 <0>         0.0927
      2 N1          0.0021   -0.0041    0.0020 N.pl3     1 <0>        -0.6204
      3 C2          0.0241   -0.7433    1.2666 C.3       1 <0>         0.1828
      4 C3         -1.3889   -1.0161    1.7137 C.ar      1 <0>         0.0258
      5 C4         -1.9892   -2.2351    1.3999 C.ar      1 <0>         0.1544
      6 N2         -3.2219   -2.4965    1.7797 N.ar      1 <0>        -0.4375
      7 C5         -3.9051   -1.5830    2.4739 C.ar      1 <0>         0.3737
      8 C6         -3.2902   -0.3458    2.7901 C.ar      1 <0>        -0.0920
      9 N3         -2.0425   -0.1038    2.4012 N.ar      1 <0>        -0.3710
     10 C7         -4.0706    0.6301    3.5527 C.ar      1 <0>         0.5437
     11 N4         -5.3055    0.2953    3.9004 N.ar      1 <0>        -0.6290
     12 C8         -5.8196   -0.8850    3.5693 C.ar      1 <0>         0.6383
     13 N5         -5.1609   -1.7987    2.8845 N.ar      1 <0>        -0.5999
     14 N6         -7.1130   -1.1692    3.9639 N.pl3     1 <0>        -0.8082
     15 N7         -3.5402    1.8539    3.8976 N.pl3     1 <0>        -0.7934
     16 C9          0.0000   -0.6928   -1.2059 C.ar      1 <0>         0.2274
     17 C10         0.0132   -2.0849   -1.2118 C.ar      1 <0>        -0.2106
     18 C11         0.0112   -2.7693   -2.4056 C.ar      1 <0>        -0.0110
     19 C12        -0.0041   -2.0653   -3.6133 C.ar      1 <0>        -0.1712
     20 C13        -0.0173   -0.6674   -3.6040 C.ar      1 <0>        -0.0358
     21 C14        -0.0210    0.0112   -2.4068 C.ar      1 <0>        -0.2018
     22 C15        -0.0058   -2.7960   -4.8948 C.2       1 <0>         0.5638
     23 O1          0.0061   -4.0119   -4.9015 O.2       1 <0>        -0.5478
     24 N8         -0.0205   -2.1158   -6.0583 N.am      1 <0>        -0.6951
     25 C16        -0.0222   -2.8414   -7.3310 C.3       1 <0>         0.0807
     26 C17        -0.6480   -1.9644   -8.4172 C.3       1 <0>        -0.1205
     27 C18        -2.1222   -1.7198   -8.0888 C.3       1 <0>         0.1184
     28 N9         -2.7214   -0.8800   -9.1290 N.am      1 <0>        -0.7193
     29 C19        -4.0211   -0.5323   -9.0487 C.2       1 <0>         0.5529
     30 O2         -4.6961   -0.9156   -8.1132 O.2       1 <0>        -0.5342
     31 C20        -4.6256    0.3149  -10.0979 C.ar      1 <0>        -0.1253
     32 C21        -3.8543    0.7518  -11.1766 C.ar      1 <0>        -0.0737
     33 C22        -4.4240    1.5417  -12.1528 C.ar      1 <0>        -0.1169
     34 C23        -5.7585    1.9021  -12.0646 C.ar      1 <0>        -0.0148
     35 C24        -6.5287    1.4717  -10.9968 C.ar      1 <0>        -0.1187
     36 C25        -5.9716    0.6767  -10.0175 C.ar      1 <0>        -0.0485
     37 Cl1        -6.4684    2.8977  -13.2968 Cl        1 <0>        -0.0660
     38 C26         1.3940   -3.1839   -7.7158 C.2       1 <0>         0.4917
     39 O3          2.3190   -2.8526   -6.9939 O.co2     1 <0>        -0.6803
     40 O4          1.6147   -3.7923   -8.7491 O.co2     1 <0>        -0.6977
     41 H1          1.0048    1.8381    0.0023 H         1 <0>         0.0524
     42 H2         -0.5450    1.8219   -0.8730 H         1 <0>         0.0681
     43 H3         -0.5280    1.8123    0.9069 H         1 <0>         0.0686
     44 H4          0.5496   -1.6879    1.1262 H         1 <0>         0.1023
     45 H5          0.5371   -0.1514    2.0246 H         1 <0>         0.0973
     46 H6         -1.4361   -2.9733    0.8382 H         1 <0>         0.1801
     47 H7         -7.6209   -0.5150    4.4689 H         1 <0>         0.4160
     48 H8         -7.5132   -2.0229    3.7358 H         1 <0>         0.4196
     49 H9         -2.6346    2.0814    3.6347 H         1 <0>         0.4250
     50 H10        -4.0722    2.4880    4.4032 H         1 <0>         0.4150
     51 H11         0.0253   -2.6282   -0.2785 H         1 <0>         0.1240
     52 H12         0.0217   -3.8493   -2.4096 H         1 <0>         0.1362
     53 H13        -0.0287   -0.1208   -4.5353 H         1 <0>         0.1235
     54 H14        -0.0359    1.0910   -2.3989 H         1 <0>         0.1250
     55 H15        -0.0300   -1.1459   -6.0530 H         1 <0>         0.3875
     56 H16        -0.6020   -3.7584   -7.2256 H         1 <0>         0.0872
     57 H17        -0.1225   -1.0104   -8.4615 H         1 <0>         0.0679
     58 H18        -0.5691   -2.4677   -9.3808 H         1 <0>         0.0911
     59 H19        -2.6477   -2.6737   -8.0445 H         1 <0>         0.0716
     60 H20        -2.2011   -1.2164   -7.1252 H         1 <0>         0.0697
     61 H21        -2.1828   -0.5741   -9.8754 H         1 <0>         0.4000
     62 H22        -2.8135    0.4720  -11.2460 H         1 <0>         0.1388
     63 H23        -3.8283    1.8803  -12.9876 H         1 <0>         0.1408
     64 H24        -7.5686    1.7562  -10.9332 H         1 <0>         0.1402
     65 H25        -6.5742    0.3382   -9.1876 H         1 <0>         0.1464
@<TRIPOS>BOND
     1    1    2 1
     2    1   41 1
     3    1   42 1
     4    1   43 1
     5    2    3 1
     6    2   16 1
     7    3    4 1
     8    3   44 1
     9    3   45 1
    10    4    9 ar
    11    4    5 ar
    12    5    6 ar
    13    5   46 1
    14    6    7 ar
    15    7   13 ar
    16    7    8 ar
    17    8    9 ar
    18    8   10 ar
    19   10   11 ar
    20   10   15 1
    21   11   12 ar
    22   12   13 ar
    23   12   14 1
    24   14   47 1
    25   14   48 1
    26   15   49 1
    27   15   50 1
    28   16   21 ar
    29   16   17 ar
    30   17   18 ar
    31   17   51 1
    32   18   19 ar
    33   18   52 1
    34   19   20 ar
    35   19   22 1
    36   20   21 ar
    37   20   53 1
    38   21   54 1
    39   22   23 2
    40   22   24 am
    41   24   25 1
    42   24   55 1
    43   25   26 1
    44   25   38 1
    45   25   56 1
    46   26   27 1
    47   26   57 1
    48   26   58 1
    49   27   28 1
    50   27   59 1
    51   27   60 1
    52   28   29 am
    53   28   61 1
    54   29   30 2
    55   29   31 1
    56   31   36 ar
    57   31   32 ar
    58   32   33 ar
    59   32   62 1
    60   33   34 ar
    61   33   63 1
    62   34   35 ar
    63   34   37 1
    64   35   36 ar
    65   35   64 1
    66   36   65 1
    67   38   39 2
    68   38   40 1
@<TRIPOS>MOLECULE
CHEMBL346666
   43    46     0     0     0
SMALL
USER_CHARGES

@<TRIPOS>ATOM
      1 C1          0.6027    1.5059    0.0256 C.3       1 <0>        -0.1685
      2 C2          0.5978   -0.0011    0.0167 C.ar      1 <0>         0.0780
      3 C3          0.7711   -0.7002   -1.1492 C.ar      1 <0>        -0.1765
      4 C4          0.7631   -2.0894   -1.1308 C.ar      1 <0>         0.2405
      5 N1          0.5923   -2.7658   -0.0167 N.ar      1 <0>        -0.4981
      6 C5          0.4186   -2.1439    1.1496 C.ar      1 <0>         0.4089
      7 C6          0.4219   -0.7279    1.1996 C.ar      1 <0>        -0.2410
      8 C7          0.2403   -0.0941    2.4537 C.ar      1 <0>         0.5787
      9 N2          0.0801   -0.8575    3.5253 N.ar      1 <0>        -0.5776
     10 C8          0.0882   -2.1844    3.4357 C.ar      1 <0>         0.6998
     11 N3          0.2432   -2.8239    2.2916 N.ar      1 <0>        -0.5725
     12 N4         -0.0838   -2.9256    4.5891 N.pl3     1 <0>        -0.7762
     13 N5          0.2308    1.2796    2.5567 N.pl3     1 <0>        -0.8020
     14 C9          0.9696    0.0364   -2.4489 C.3       1 <0>         0.1674
     15 N6          2.3622    0.4797   -2.5512 N.pl3     1 <0>        -0.7427
     16 C10         2.7875    1.1870   -3.6739 C.ar      1 <0>         0.2128
     17 C11         1.9024    1.4793   -4.6914 C.ar      1 <0>        -0.1894
     18 C12         2.3183    2.1856   -5.8159 C.ar      1 <0>        -0.0694
     19 C13         3.6068    2.6083   -5.9469 C.ar      1 <0>        -0.1360
     20 C14         4.5385    2.3315   -4.9346 C.ar      1 <0>        -0.0744
     21 C15         4.1244    1.6171   -3.7808 C.ar      1 <0>        -0.0631
     22 C16         5.0765    1.3585   -2.7804 C.ar      1 <0>        -0.1543
     23 C17         6.3503    1.8081   -2.9580 C.ar      1 <0>         0.0728
     24 N7          6.7105    2.4788   -4.0436 N.ar      1 <0>        -0.4805
     25 C18         5.8782    2.7451   -5.0227 C.ar      1 <0>         0.1457
     26 H1          1.5940    1.8644    0.3030 H         1 <0>         0.1064
     27 H2          0.3472    1.8760   -0.9673 H         1 <0>         0.1067
     28 H3         -0.1295    1.8674    0.7476 H         1 <0>         0.1068
     29 H4          0.9004   -2.6280   -2.0567 H         1 <0>         0.1949
     30 H5         -0.2071   -2.4769    5.4402 H         1 <0>         0.4486
     31 H6         -0.0814   -3.8947    4.5477 H         1 <0>         0.4342
     32 H7         -0.4109    1.7180    3.1371 H         1 <0>         0.4313
     33 H8          0.8658    1.8084    2.0488 H         1 <0>         0.4361
     34 H9          0.7374   -0.6273   -3.2818 H         1 <0>         0.0877
     35 H10         0.3092    0.9030   -2.4798 H         1 <0>         0.0876
     36 H11         2.9882    0.2808   -1.8374 H         1 <0>         0.3992
     37 H12         0.8749    1.1558   -4.6142 H         1 <0>         0.1250
     38 H13         1.6069    2.4023   -6.5990 H         1 <0>         0.1290
     39 H14         3.9106    3.1546   -6.8276 H         1 <0>         0.1337
     40 H15         4.8038    0.8146   -1.8881 H         1 <0>         0.1246
     41 H16         7.0873    1.6129   -2.1930 H         1 <0>         0.1518
     42 H17         6.2190    3.2939   -5.8881 H         1 <0>         0.1676
     43 H18         0.2412   -3.7938    2.2786 H         1 <0>         0.4465
@<TRIPOS>BOND
     1    1    2 1
     2    1   26 1
     3    1   27 1
     4    1   28 1
     5    2    7 ar
     6    2    3 ar
     7    3    4 ar
     8    3   14 1
     9    4    5 ar
    10    4   29 1
    11    5    6 ar
    12    6   11 ar
    13    6    7 ar
    14    7    8 ar
    15    8    9 ar
    16    8   13 1
    17    9   10 ar
    18   10   11 ar
    19   10   12 1
    20   11   43 1
    21   12   30 1
    22   12   31 1
    23   13   32 1
    24   13   33 1
    25   14   15 1
    26   14   34 1
    27   14   35 1
    28   15   16 1
    29   15   36 1
    30   16   21 ar
    31   16   17 ar
    32   17   18 ar
    33   17   37 1
    34   18   19 ar
    35   18   38 1
    36   19   20 ar
    37   19   39 1
    38   20   25 ar
    39   20   21 ar
    40   21   22 ar
    41   22   23 ar
    42   22   40 1
    43   23   24 ar
    44   23   41 1
    45   24   25 ar
    46   25   42 1
@<TRIPOS>MOLECULE
CHEMBL346666__1
   44    47     0     0     0
SMALL
USER_CHARGES

@<TRIPOS>ATOM
      1 C1          0.6027    1.5059    0.0256 C.3       1 <0>        -0.1691
      2 C2          0.5978   -0.0011    0.0167 C.ar      1 <0>         0.0801
      3 C3          0.7711   -0.7002   -1.1492 C.ar      1 <0>        -0.1899
      4 C4          0.7631   -2.0894   -1.1308 C.ar      1 <0>         0.2422
      5 N1          0.5923   -2.7658   -0.0167 N.ar      1 <0>        -0.4959
      6 C5          0.4186   -2.1439    1.1496 C.ar      1 <0>         0.4171
      7 C6          0.4219   -0.7279    1.1996 C.ar      1 <0>        -0.2420
      8 C7          0.2403   -0.0941    2.4537 C.ar      1 <0>         0.5775
      9 N2          0.0801   -0.8575    3.5253 N.ar      1 <0>        -0.5737
     10 C8          0.0882   -2.1844    3.4357 C.ar      1 <0>         0.7013
     11 N3          0.2432   -2.8239    2.2916 N.ar      1 <0>        -0.5739
     12 N4         -0.0838   -2.9256    4.5891 N.pl3     1 <0>        -0.7698
     13 N5          0.2308    1.2796    2.5567 N.pl3     1 <0>        -0.8024
     14 C9          0.9696    0.0364   -2.4489 C.3       1 <0>         0.1620
     15 N6          2.3622    0.4797   -2.5512 N.pl3     1 <0>        -0.7321
     16 C10         2.7875    1.1870   -3.6739 C.ar      1 <0>         0.2217
     17 C11         1.9024    1.4793   -4.6914 C.ar      1 <0>        -0.1435
     18 C12         2.3183    2.1856   -5.8159 C.ar      1 <0>        -0.0364
     19 C13         3.6068    2.6083   -5.9469 C.ar      1 <0>        -0.1177
     20 C14         4.5385    2.3315   -4.9346 C.ar      1 <0>        -0.0635
     21 C15         4.1244    1.6171   -3.7808 C.ar      1 <0>        -0.0472
     22 C16         5.0765    1.3585   -2.7804 C.ar      1 <0>        -0.0718
     23 C17         6.3503    1.8081   -2.9580 C.ar      1 <0>         0.0405
     24 N7          6.7105    2.4788   -4.0436 N.ar      1 <0>        -0.4365
     25 C18         5.8782    2.7451   -5.0227 C.ar      1 <0>         0.2126
     26 H1          1.5940    1.8644    0.3030 H         1 <0>         0.1042
     27 H2          0.3472    1.8760   -0.9673 H         1 <0>         0.1041
     28 H3         -0.1295    1.8674    0.7476 H         1 <0>         0.1106
     29 H4          0.9004   -2.6280   -2.0567 H         1 <0>         0.1946
     30 H5         -0.2071   -2.4769    5.4402 H         1 <0>         0.4509
     31 H6         -0.0814   -3.8947    4.5477 H         1 <0>         0.4364
     32 H7         -0.4109    1.7180    3.1371 H         1 <0>         0.4335
     33 H8          0.8658    1.8084    2.0488 H         1 <0>         0.4342
     34 H9          0.7374   -0.6273   -3.2818 H         1 <0>         0.0969
     35 H10         0.3092    0.9030   -2.4798 H         1 <0>         0.0962
     36 H11         2.9882    0.2808   -1.8374 H         1 <0>         0.4038
     37 H12         0.8749    1.1558   -4.6142 H         1 <0>         0.1478
     38 H13         1.6069    2.4023   -6.5990 H         1 <0>         0.1535
     39 H14         3.9106    3.1546   -6.8276 H         1 <0>         0.1561
     40 H15         4.8038    0.8146   -1.8881 H         1 <0>         0.1669
     41 H16         7.0873    1.6129   -2.1930 H         1 <0>         0.2005
     42 H17         6.2190    3.2939   -5.8881 H         1 <0>         0.2186
     43 H18         0.2412   -3.7938    2.2786 H         1 <0>         0.4487
     44 H19         7.6301    2.7775   -4.1213 H         1 <0>         0.4529
@<TRIPOS>BOND
     1    1    2 1
     2    1   26 1
     3    1   27 1
     4    1   28 1
     5    2    7 ar
     6    2    3 ar
     7    3    4 ar
     8    3   14 1
     9    4    5 ar
    10    4   29 1
    11    5    6 ar
    12    6   11 ar
    13    6    7 ar
    14    7    8 ar
    15    8    9 ar
    16    8   13 1
    17    9   10 ar
    18   10   11 ar
    19   10   12 1
    20   11   43 1
    21   12   30 1
    22   12   31 1
    23   13   32 1
    24   13   33 1
    25   14   15 1
    26   14   34 1
    27   14   35 1
    28   15   16 1
    29   15   36 1
    30   16   21 ar
    31   16   17 ar
    32   17   18 ar
    33   17   37 1
    34   18   19 ar
    35   18   38 1
    36   19   20 ar
    37   19   39 1
    38   20   25 ar
    39   20   21 ar
    40   21   22 ar
    41   22   23 ar
    42   22   40 1
    43   23   24 ar
    44   23   41 1
    45   24   25 ar
    46   24   44 1
    47   25   42 1
@<TRIPOS>MOLECULE
CHEMBL346666__2
   42    45     0     0     0
SMALL
USER_CHARGES

@<TRIPOS>ATOM
      1 C1          0.6027    1.5059    0.0256 C.3       1 <0>        -0.1549
      2 C2          0.5978   -0.0011    0.0167 C.ar      1 <0>         0.0612
      3 C3          0.7711   -0.7002   -1.1492 C.ar      1 <0>        -0.2207
      4 C4          0.7631   -2.0894   -1.1308 C.ar      1 <0>         0.2105
      5 N1          0.5923   -2.7658   -0.0167 N.ar      1 <0>        -0.4886
      6 C5          0.4186   -2.1439    1.1496 C.ar      1 <0>         0.4175
      7 C6          0.4219   -0.7279    1.1996 C.ar      1 <0>        -0.2828
      8 C7          0.2403   -0.0941    2.4537 C.ar      1 <0>         0.5251
      9 N2          0.0801   -0.8575    3.5253 N.ar      1 <0>        -0.6165
     10 C8          0.0882   -2.1844    3.4357 C.ar      1 <0>         0.6261
     11 N3          0.2432   -2.8239    2.2916 N.ar      1 <0>        -0.5913
     12 N4         -0.0838   -2.9256    4.5891 N.pl3     1 <0>        -0.8094
     13 N5          0.2308    1.2796    2.5567 N.pl3     1 <0>        -0.8448
     14 C9          0.9696    0.0364   -2.4489 C.3       1 <0>         0.1769
     15 N6          2.3622    0.4797   -2.5512 N.pl3     1 <0>        -0.7346
     16 C10         2.7875    1.1870   -3.6739 C.ar      1 <0>         0.2261
     17 C11         1.9024    1.4793   -4.6914 C.ar      1 <0>        -0.2024
     18 C12         2.3183    2.1856   -5.8159 C.ar      1 <0>        -0.0614
     19 C13         3.6068    2.6083   -5.9469 C.ar      1 <0>        -0.1527
     20 C14         4.5385    2.3315   -4.9346 C.ar      1 <0>        -0.0696
     21 C15         4.1244    1.6171   -3.7808 C.ar      1 <0>        -0.0694
     22 C16         5.0765    1.3585   -2.7804 C.ar      1 <0>        -0.1445
     23 C17         6.3503    1.8081   -2.9580 C.ar      1 <0>         0.0634
     24 N7          6.7105    2.4788   -4.0436 N.ar      1 <0>        -0.4813
     25 C18         5.8782    2.7451   -5.0227 C.ar      1 <0>         0.1362
     26 H1          1.5940    1.8644    0.3030 H         1 <0>         0.0866
     27 H2          0.3472    1.8760   -0.9673 H         1 <0>         0.0857
     28 H3         -0.1295    1.8674    0.7476 H         1 <0>         0.1004
     29 H4          0.9004   -2.6280   -2.0567 H         1 <0>         0.1679
     30 H5         -0.2071   -2.4769    5.4402 H         1 <0>         0.4167
     31 H6         -0.0814   -3.8947    4.5477 H         1 <0>         0.4194
     32 H7         -0.4109    1.7180    3.1371 H         1 <0>         0.4113
     33 H8          0.8658    1.8084    2.0488 H         1 <0>         0.4184
     34 H9          0.7374   -0.6273   -3.2818 H         1 <0>         0.0769
     35 H10         0.3092    0.9030   -2.4798 H         1 <0>         0.0765
     36 H11         2.9882    0.2808   -1.8374 H         1 <0>         0.3999
     37 H12         0.8749    1.1558   -4.6142 H         1 <0>         0.1253
     38 H13         1.6069    2.4023   -6.5990 H         1 <0>         0.1253
     39 H14         3.9106    3.1546   -6.8276 H         1 <0>         0.1293
     40 H15         4.8038    0.8146   -1.8881 H         1 <0>         0.1275
     41 H16         7.0873    1.6129   -2.1930 H         1 <0>         0.1507
     42 H17         6.2190    3.2939   -5.8881 H         1 <0>         0.1640
@<TRIPOS>BOND
     1    1    2 1
     2    1   26 1
     3    1   27 1
     4    1   28 1
     5    2    7 ar
     6    2    3 ar
     7    3    4 ar
     8    3   14 1
     9    4    5 ar
    10    4   29 1
    11    5    6 ar
    12    6   11 ar
    13    6    7 ar
    14    7    8 ar
    15    8    9 ar
    16    8   13 1
    17    9   10 ar
    18   10   11 ar
    19   10   12 1
    20   12   30 1
    21   12   31 1
    22   13   32 1
    23   13   33 1
    24   14   15 1
    25   14   34 1
    26   14   35 1
    27   15   16 1
    28   15   36 1
    29   16   21 ar
    30   16   17 ar
    31   17   18 ar
    32   17   37 1
    33   18   19 ar
    34   18   38 1
    35   19   20 ar
    36   19   39 1
    37   20   25 ar
    38   20   21 ar
    39   21   22 ar
    40   22   23 ar
    41   22   40 1
    42   23   24 ar
    43   23   41 1
    44   24   25 ar
    45   25   42 1
@<TRIPOS>MOLECULE
CHEMBL20466
   52    55     0     0     0
SMALL
USER_CHARGES

@<TRIPOS>ATOM
      1 C1          2.5364   -0.7491   -0.3546 C.3       1 <0>        -0.1720
      2 C2          1.1956   -1.3049    0.1296 C.3       1 <0>         0.4022
      3 N1          0.1949   -1.1814   -0.9367 N.pl3     1 <0>        -0.6960
      4 C3         -1.0585   -0.9582   -0.6434 C.cat     1 <0>         0.7285
      5 N2         -1.4745   -0.7896    0.6233 N.2       1 <0>        -0.6370
      6 C4         -0.6096   -0.5909    1.6008 C.2       1 <0>         0.7311
      7 N3          0.7297   -0.5331    1.2921 N.pl3     1 <0>        -0.5932
      8 C5          1.6166    0.2329    2.0558 C.ar      1 <0>         0.0871
      9 C6          1.7473    1.5943    1.8133 C.ar      1 <0>        -0.0903
     10 C7          2.6238    2.3477    2.5690 C.ar      1 <0>        -0.1025
     11 C8          3.3714    1.7479    3.5662 C.ar      1 <0>        -0.0642
     12 C9          3.2435    0.3930    3.8101 C.ar      1 <0>        -0.0758
     13 C10         2.3640   -0.3650    3.0619 C.ar      1 <0>        -0.0841
     14 C11         4.0601   -0.2563    4.8977 C.3       1 <0>         0.0953
     15 O1          3.3366   -0.2091    6.1291 O.3       1 <0>        -0.3063
     16 C12         3.9364   -0.7559    7.2179 C.ar      1 <0>         0.1394
     17 C13         5.1794   -1.3138    7.1112 C.ar      1 <0>        -0.2175
     18 C14         5.8076   -1.8781    8.2177 C.ar      1 <0>        -0.0791
     19 C15         5.2034   -1.8907    9.4380 C.ar      1 <0>        -0.1365
     20 C16         3.9253   -1.3268    9.5896 C.ar      1 <0>        -0.0202
     21 C17         3.2837   -0.7466    8.4673 C.ar      1 <0>        -0.0683
     22 C18         2.0084   -0.1790    8.6197 C.ar      1 <0>        -0.0904
     23 C19         1.4084   -0.1887    9.8417 C.ar      1 <0>        -0.1235
     24 C20         2.0411   -0.7544   10.9470 C.ar      1 <0>        -0.1024
     25 C21         3.2726   -1.3229   10.8344 C.ar      1 <0>        -0.1122
     26 N4         -1.0357   -0.4452    2.8917 N.pl3     1 <0>        -0.7689
     27 N5         -1.9836   -0.8930   -1.6657 N.pl3     1 <0>        -0.7919
     28 C22         1.3574   -2.7758    0.5184 C.3       1 <0>        -0.1813
     29 H1          3.2919   -0.8998    0.4164 H         1 <0>         0.1008
     30 H2          2.8374   -1.2679   -1.2647 H         1 <0>         0.0988
     31 H3          2.4349    0.3165   -0.5605 H         1 <0>         0.0831
     32 H4          1.1644    2.0631    1.0343 H         1 <0>         0.1296
     33 H5          2.7259    3.4062    2.3810 H         1 <0>         0.1432
     34 H6          4.0567    2.3392    4.1554 H         1 <0>         0.1410
     35 H7          2.2614   -1.4225    3.2558 H         1 <0>         0.1363
     36 H8          4.2583   -1.2947    4.6323 H         1 <0>         0.0775
     37 H9          5.0042    0.2765    5.0104 H         1 <0>         0.0818
     38 H10         5.6812   -1.3172    6.1548 H         1 <0>         0.1268
     39 H11         6.7898   -2.3133    8.1065 H         1 <0>         0.1277
     40 H12         5.7047   -2.3330   10.2863 H         1 <0>         0.1315
     41 H13         1.5063    0.2632    7.7720 H         1 <0>         0.1277
     42 H14         0.4277    0.2489    9.9562 H         1 <0>         0.1251
     43 H15         1.5434   -0.7487   11.9055 H         1 <0>         0.1274
     44 H16         3.7508   -1.7581   11.6995 H         1 <0>         0.1329
     45 H17        -1.9762   -0.5470    3.1064 H         1 <0>         0.4408
     46 H18        -0.3976   -0.2400    3.5928 H         1 <0>         0.4308
     47 H19        -1.6992   -1.0123   -2.5854 H         1 <0>         0.4289
     48 H20        -2.9180   -0.7280   -1.4645 H         1 <0>         0.4409
     49 H21         2.0939   -2.8615    1.3174 H         1 <0>         0.0960
     50 H22         0.4005   -3.1680    0.8627 H         1 <0>         0.0721
     51 H23         1.6932   -3.3458   -0.3479 H         1 <0>         0.0973
     52 H24         0.4656   -1.2657   -1.8643 H         1 <0>         0.4316
@<TRIPOS>BOND
     1    1    2 1
     2    1   29 1
     3    1   30 1
     4    1   31 1
     5    2    7 1
     6    2    3 1
     7    2   28 1
     8    3    4 2
     9    3   52 1
    10    4    5 1
    11    4   27 1
    12    5    6 2
    13    6    7 1
    14    6   26 1
    15    7    8 1
    16    8   13 ar
    17    8    9 ar
    18    9   10 ar
    19    9   32 1
    20   10   11 ar
    21   10   33 1
    22   11   12 ar
    23   11   34 1
    24   12   13 ar
    25   12   14 1
    26   13   35 1
    27   14   15 1
    28   14   36 1
    29   14   37 1
    30   15   16 1
    31   16   21 ar
    32   16   17 ar
    33   17   18 ar
    34   17   38 1
    35   18   19 ar
    36   18   39 1
    37   19   20 ar
    38   19   40 1
    39   20   25 ar
    40   20   21 ar
    41   21   22 ar
    42   22   23 ar
    43   22   41 1
    44   23   24 ar
    45   23   42 1
    46   24   25 ar
    47   24   43 1
    48   25   44 1
    49   26   45 1
    50   26   46 1
    51   27   47 1
    52   27   48 1
    53   28   49 1
    54   28   50 1
    55   28   51 1
@<TRIPOS>MOLECULE
CHEMBL551049
   50    52     0     0     0
SMALL
USER_CHARGES

@<TRIPOS>ATOM
      1 C1         -0.0187    1.5258    0.0104 C.3       1 <0>        -0.1442
      2 C2          0.0021   -0.0041    0.0020 C.3       1 <0>        -0.0477
      3 C3         -1.4117   -0.5257    0.0127 C.2       1 <0>        -0.0990
      4 C4         -2.2025   -0.8139   -1.0385 C.2       1 <0>        -0.1001
      5 C5         -3.5484   -1.3118   -0.7945 C.2       1 <0>        -0.2673
      6 C6         -4.5599   -1.6814   -1.7341 C.2       1 <0>         0.5656
      7 O1         -4.3493   -1.5998   -2.9321 O.2       1 <0>        -0.4852
      8 N1         -5.7476   -2.1212   -1.2795 N.am      1 <0>        -0.6537
      9 H1         -6.4364   -2.3729   -1.9145 H         1 <0>         0.4160
     10 C7         -6.0014   -2.2202    0.0569 C.2       1 <0>         0.6528
     11 N2         -5.0886   -1.8863    0.9451 N.2       1 <0>        -0.5537
     12 C8         -3.8954   -1.4448    0.5634 C.2       1 <0>         0.1551
     13 S1         -2.4341   -0.9160    1.4199 S.3       1 <0>         0.1472
     14 N3         -7.2254   -2.6737    0.4818 N.pl3     1 <0>        -0.8151
     15 S2         -1.6167   -0.5911   -2.6852 S.3       1 <0>         0.0269
     16 C9         -0.8823   -2.1408   -3.0898 C.ar      1 <0>        -0.0810
     17 C10        -0.8857   -3.1763   -2.1576 C.ar      1 <0>        -0.1335
     18 C11        -0.3171   -4.3788   -2.4685 C.ar      1 <0>        -0.0482
     19 C12         0.2689   -4.5699   -3.7239 C.ar      1 <0>        -0.1102
     20 C13         0.2709   -3.5287   -4.6576 C.ar      1 <0>        -0.0670
     21 C14        -0.3042   -2.3302   -4.3433 C.ar      1 <0>        -0.1042
     22 C15         0.8839   -5.8667   -4.0623 C.2       1 <0>         0.5521
     23 O2          0.8819   -6.7712   -3.2494 O.2       1 <0>        -0.5556
     24 N4          1.4483   -6.0495   -5.2725 N.am      1 <0>        -0.6752
     25 C16         2.0593   -7.3378   -5.6086 C.3       1 <0>         0.0725
     26 H2          1.4903   -8.1424   -5.1429 H         1 <0>         0.0776
     27 C17         2.0555   -7.5233   -7.1274 C.3       1 <0>        -0.0803
     28 C18         0.6120   -7.6176   -7.6259 C.3       1 <0>        -0.1782
     29 C19         0.6082   -7.8002   -9.1218 C.2       1 <0>         0.4911
     30 O3          1.6622   -7.8504   -9.7325 O.co2     1 <0>        -0.6970
     31 O4         -0.4490   -7.8979   -9.7213 O.co2     1 <0>        -0.7203
     32 C20         3.4785   -7.3680   -5.1025 C.2       1 <0>         0.4961
     33 O5          3.9370   -6.4028   -4.5154 O.co2     1 <0>        -0.6964
     34 O6          4.1681   -8.3577   -5.2802 O.co2     1 <0>        -0.7003
     35 H3          1.0039    1.9031    0.0027 H         1 <0>         0.0674
     36 H4         -0.5459    1.8868   -0.8726 H         1 <0>         0.0632
     37 H5         -0.5289    1.8773    0.9072 H         1 <0>         0.0547
     38 H6          0.5123   -0.3556   -0.8948 H         1 <0>         0.1021
     39 H7          0.5293   -0.3651    0.8851 H         1 <0>         0.0848
     40 H8         -7.9028   -2.9212   -0.1669 H         1 <0>         0.4177
     41 H9         -7.4129   -2.7467    1.4307 H         1 <0>         0.4298
     42 H10        -1.3381   -3.0281   -1.1882 H         1 <0>         0.1159
     43 H11        -0.3198   -5.1810   -1.7454 H         1 <0>         0.1343
     44 H12         0.7230   -3.6734   -5.6277 H         1 <0>         0.1346
     45 H13        -0.3069   -1.5272   -5.0655 H         1 <0>         0.1299
     46 H14         1.4499   -5.3280   -5.9208 H         1 <0>         0.3895
     47 H15         2.5478   -6.6726   -7.5986 H         1 <0>         0.0554
     48 H16         2.5886   -8.4390   -7.3829 H         1 <0>         0.0792
     49 H17         0.1197   -8.4682   -7.1547 H         1 <0>         0.0518
     50 H18         0.0789   -6.7019   -7.3704 H         1 <0>         0.0502
@<TRIPOS>BOND
     1    1    2 1
     2    1   35 1
     3    1   36 1
     4    1   37 1
     5    2    3 1
     6    2   38 1
     7    2   39 1
     8    3   13 1
     9    3    4 2
    10    4    5 1
    11    4   15 1
    12    5   12 2
    13    5    6 1
    14    6    7 2
    15    6    8 am
    16    8    9 1
    17    8   10 1
    18   10   11 2
    19   10   14 1
    20   11   12 1
    21   12   13 1
    22   14   40 1
    23   14   41 1
    24   15   16 1
    25   16   21 ar
    26   16   17 ar
    27   17   18 ar
    28   17   42 1
    29   18   19 ar
    30   18   43 1
    31   19   20 ar
    32   19   22 1
    33   20   21 ar
    34   20   44 1
    35   21   45 1
    36   22   23 2
    37   22   24 am
    38   24   25 1
    39   24   46 1
    40   25   26 1
    41   25   27 1
    42   25   32 1
    43   27   28 1
    44   27   47 1
    45   27   48 1
    46   28   29 1
    47   28   49 1
    48   28   50 1
    49   29   30 2
    50   29   31 1
    51   32   33 2
    52   32   34 1
@<TRIPOS>MOLECULE
CHEMBL422395
   56    58     0     0     0
SMALL
USER_CHARGES

@<TRIPOS>ATOM
      1 C1          0.0180   -1.1779   -0.0044 C.1       1 <0>        -0.1888
      2 C2          0.0021   -0.0041    0.0020 C.1       1 <0>        -0.2077
      3 C3         -0.0179    1.4678    0.0101 C.3       1 <0>         0.2312
      4 N1          1.3565    1.9749   -0.0003 N.pl3     1 <0>        -0.6167
      5 C4          2.0316    2.2352   -1.2741 C.3       1 <0>         0.1674
      6 C5          1.7714    3.6575   -1.6991 C.ar      1 <0>        -0.1461
      7 C6          0.6630    3.9477   -2.4841 C.ar      1 <0>        -0.0482
      8 C7          0.4010    5.2275   -2.8849 C.ar      1 <0>        -0.1326
      9 C8          1.2588    6.2620   -2.5005 C.ar      1 <0>         0.2061
     10 C9          2.3855    5.9629   -1.7013 C.ar      1 <0>        -0.2253
     11 C10         2.6261    4.6487   -1.3027 C.ar      1 <0>        -0.0082
     12 C11         3.2719    7.0676   -1.3110 C.2       1 <0>         0.5632
     13 O1          4.2578    6.8731   -0.6240 O.2       1 <0>        -0.4935
     14 N2          2.9521    8.3092   -1.7438 N.am      1 <0>        -0.6685
     15 C12         1.8435    8.5112   -2.5133 C.2       1 <0>         0.6389
     16 N3          1.0381    7.5442   -2.8749 N.2       1 <0>        -0.5911
     17 N4          1.5595    9.7880   -2.9281 N.pl3     1 <0>        -0.8283
     18 C13         2.0203    2.2090    1.1989 C.ar      1 <0>         0.2230
     19 C14         3.3243    2.6963    1.1874 C.ar      1 <0>        -0.2048
     20 C15         3.9839    2.9291    2.3725 C.ar      1 <0>        -0.0165
     21 C16         3.3431    2.6757    3.5888 C.ar      1 <0>        -0.1617
     22 C17         2.0335    2.1865    3.5970 C.ar      1 <0>        -0.0372
     23 C18         1.3773    1.9611    2.4086 C.ar      1 <0>        -0.1977
     24 C19         4.0474    2.9237    4.8610 C.2       1 <0>         0.5493
     25 O2          5.1866    3.3489    4.8524 O.2       1 <0>        -0.5588
     26 N5          3.4283    2.6790    6.0329 N.am      1 <0>        -0.6793
     27 C20         4.1278    2.9253    7.2963 C.3       1 <0>         0.0748
     28 C21         3.5306    2.0389    8.3911 C.3       1 <0>        -0.0820
     29 C22         3.7982    0.5693    8.0600 C.3       1 <0>        -0.1768
     30 C23         3.2100   -0.3037    9.1384 C.2       1 <0>         0.4912
     31 O3          2.6304    0.2025   10.0840 O.co2     1 <0>        -0.6980
     32 O4          3.3137   -1.5163    9.0651 O.co2     1 <0>        -0.7202
     33 C24         3.9726    4.3737    7.6824 C.2       1 <0>         0.4985
     34 O5          2.9735    4.9891    7.3516 O.co2     1 <0>        -0.6992
     35 O6          4.8463    4.9302    8.3255 O.co2     1 <0>        -0.7030
     36 H1          0.0322   -2.2278   -0.0102 H         1 <0>         0.2146
     37 H2         -0.5451    1.8289   -0.8729 H         1 <0>         0.0946
     38 H3         -0.5281    1.8193    0.9069 H         1 <0>         0.1020
     39 H4          3.1042    2.0821   -1.1549 H         1 <0>         0.0880
     40 H5          1.6495    1.5533   -2.0338 H         1 <0>         0.0837
     41 H6         -0.0013    3.1502   -2.7825 H         1 <0>         0.1279
     42 H7         -0.4643    5.4386   -3.4959 H         1 <0>         0.1347
     43 H8          3.4831    4.4148   -0.6886 H         1 <0>         0.1399
     44 H9          2.1412   10.5213   -2.6735 H         1 <0>         0.4119
     45 H10         0.7771    9.9573   -3.4759 H         1 <0>         0.4262
     46 H11         3.8190    2.8915    0.2474 H         1 <0>         0.1226
     47 H12         4.9956    3.3068    2.3629 H         1 <0>         0.1336
     48 H13         1.5360    1.9894    4.5351 H         1 <0>         0.1286
     49 H14         0.3640    1.5876    2.4143 H         1 <0>         0.1233
     50 H15         2.5196    2.3398    6.0397 H         1 <0>         0.3899
     51 H16         5.1859    2.6924    7.1772 H         1 <0>         0.0767
     52 H17         3.9896    2.2851    9.3486 H         1 <0>         0.0715
     53 H18         2.4554    2.2082    8.4494 H         1 <0>         0.0594
     54 H19         3.3392    0.3231    7.1025 H         1 <0>         0.0515
     55 H20         4.8734    0.4000    8.0017 H         1 <0>         0.0524
     56 H21         3.5154    9.0618   -1.5048 H         1 <0>         0.4133
@<TRIPOS>BOND
     1    1    2 3
     2    1   36 1
     3    2    3 1
     4    3    4 1
     5    3   37 1
     6    3   38 1
     7    4    5 1
     8    4   18 1
     9    5    6 1
    10    5   39 1
    11    5   40 1
    12    6   11 ar
    13    6    7 ar
    14    7    8 ar
    15    7   41 1
    16    8    9 ar
    17    8   42 1
    18    9   16 1
    19    9   10 ar
    20   10   11 ar
    21   10   12 1
    22   11   43 1
    23   12   13 2
    24   12   14 am
    25   14   15 1
    26   14   56 1
    27   15   16 2
    28   15   17 1
    29   17   44 1
    30   17   45 1
    31   18   23 ar
    32   18   19 ar
    33   19   20 ar
    34   19   46 1
    35   20   21 ar
    36   20   47 1
    37   21   22 ar
    38   21   24 1
    39   22   23 ar
    40   22   48 1
    41   23   49 1
    42   24   25 2
    43   24   26 am
    44   26   27 1
    45   26   50 1
    46   27   28 1
    47   27   33 1
    48   27   51 1
    49   28   29 1
    50   28   52 1
    51   28   53 1
    52   29   30 1
    53   29   54 1
    54   29   55 1
    55   30   31 2
    56   30   32 1
    57   33   34 2
    58   33   35 1
@<TRIPOS>MOLECULE
CHEMBL422395__1
   56    58     0     0     0
SMALL
USER_CHARGES

@<TRIPOS>ATOM
      1 C1          0.0180   -1.1779   -0.0044 C.1       1 <0>        -0.1902
      2 C2          0.0021   -0.0041    0.0020 C.1       1 <0>        -0.2065
      3 C3         -0.0179    1.4678    0.0101 C.3       1 <0>         0.2310
      4 N1          1.3565    1.9749   -0.0003 N.pl3     1 <0>        -0.6169
      5 C4          2.0316    2.2352   -1.2741 C.3       1 <0>         0.1673
      6 C5          1.7714    3.6575   -1.6991 C.ar      1 <0>        -0.1455
      7 C6          0.6630    3.9477   -2.4841 C.ar      1 <0>        -0.0480
      8 C7          0.4010    5.2275   -2.8849 C.ar      1 <0>        -0.1324
      9 C8          1.2588    6.2620   -2.5005 C.ar      1 <0>         0.2060
     10 C9          2.3855    5.9629   -1.7013 C.ar      1 <0>        -0.2256
     11 C10         2.6261    4.6487   -1.3027 C.ar      1 <0>        -0.0084
     12 C11         3.2719    7.0676   -1.3110 C.2       1 <0>         0.5636
     13 O1          4.2578    6.8731   -0.6240 O.2       1 <0>        -0.4948
     14 N2          2.9521    8.3092   -1.7438 N.am      1 <0>        -0.6685
     15 C12         1.8435    8.5112   -2.5133 C.2       1 <0>         0.6386
     16 N3          1.0381    7.5442   -2.8749 N.2       1 <0>        -0.5908
     17 N4          1.5595    9.7880   -2.9281 N.pl3     1 <0>        -0.8282
     18 C13         2.0203    2.2090    1.1989 C.ar      1 <0>         0.2219
     19 C14         3.3243    2.6963    1.1874 C.ar      1 <0>        -0.2045
     20 C15         3.9839    2.9291    2.3725 C.ar      1 <0>        -0.0168
     21 C16         3.3431    2.6757    3.5888 C.ar      1 <0>        -0.1590
     22 C17         2.0335    2.1865    3.5970 C.ar      1 <0>        -0.0382
     23 C18         1.3773    1.9611    2.4086 C.ar      1 <0>        -0.1977
     24 C19         4.0474    2.9237    4.8610 C.2       1 <0>         0.5561
     25 O2          5.1866    3.3489    4.8524 O.2       1 <0>        -0.5602
     26 N5          3.4283    2.6790    6.0329 N.am      1 <0>        -0.6797
     27 C20         4.1278    2.9253    7.2963 C.3       1 <0>         0.0737
     28 C21         3.1043    3.1811    8.4044 C.3       1 <0>        -0.0799
     29 C22         2.3414    4.4733    8.1056 C.3       1 <0>        -0.1775
     30 C23         1.3333    4.7253    9.1971 C.2       1 <0>         0.4910
     31 O3          1.2342    3.9438   10.1277 O.co2     1 <0>        -0.6974
     32 O4          0.6168    5.7106    9.1495 O.co2     1 <0>        -0.7210
     33 C24         4.9623    1.7217    7.6514 C.2       1 <0>         0.4956
     34 O5          4.9718    0.7484    6.9171 O.co2     1 <0>        -0.6967
     35 O6          5.6279    1.7212    8.6729 O.co2     1 <0>        -0.7020
     36 H1          0.0322   -2.2278   -0.0102 H         1 <0>         0.2144
     37 H2         -0.5451    1.8289   -0.8729 H         1 <0>         0.0946
     38 H3         -0.5281    1.8193    0.9069 H         1 <0>         0.1021
     39 H4          3.1042    2.0821   -1.1549 H         1 <0>         0.0881
     40 H5          1.6495    1.5533   -2.0338 H         1 <0>         0.0836
     41 H6         -0.0013    3.1502   -2.7825 H         1 <0>         0.1280
     42 H7         -0.4643    5.4386   -3.4959 H         1 <0>         0.1348
     43 H8          3.4831    4.4148   -0.6886 H         1 <0>         0.1400
     44 H9          2.1412   10.5213   -2.6735 H         1 <0>         0.4118
     45 H10         0.7771    9.9573   -3.4759 H         1 <0>         0.4264
     46 H11         3.8190    2.8915    0.2474 H         1 <0>         0.1223
     47 H12         4.9956    3.3068    2.3629 H         1 <0>         0.1334
     48 H13         1.5360    1.9894    4.5351 H         1 <0>         0.1277
     49 H14         0.3640    1.5876    2.4143 H         1 <0>         0.1228
     50 H15         2.5196    2.3398    6.0397 H         1 <0>         0.3877
     51 H16         4.7738    3.7968    7.1901 H         1 <0>         0.0767
     52 H17         2.4033    2.3478    8.4510 H         1 <0>         0.0543
     53 H18         3.6197    3.2762    9.3602 H         1 <0>         0.0780
     54 H19         3.0424    5.3066    8.0590 H         1 <0>         0.0518
     55 H20         1.8260    4.3781    7.1499 H         1 <0>         0.0503
     56 H21         3.5154    9.0618   -1.5048 H         1 <0>         0.4131
@<TRIPOS>BOND
     1    1    2 3
     2    1   36 1
     3    2    3 1
     4    3    4 1
     5    3   37 1
     6    3   38 1
     7    4    5 1
     8    4   18 1
     9    5    6 1
    10    5   39 1
    11    5   40 1
    12    6   11 ar
    13    6    7 ar
    14    7    8 ar
    15    7   41 1
    16    8    9 ar
    17    8   42 1
    18    9   16 1
    19    9   10 ar
    20   10   11 ar
    21   10   12 1
    22   11   43 1
    23   12   13 2
    24   12   14 am
    25   14   15 1
    26   14   56 1
    27   15   16 2
    28   15   17 1
    29   17   44 1
    30   17   45 1
    31   18   23 ar
    32   18   19 ar
    33   19   20 ar
    34   19   46 1
    35   20   21 ar
    36   20   47 1
    37   21   22 ar
    38   21   24 1
    39   22   23 ar
    40   22   48 1
    41   23   49 1
    42   24   25 2
    43   24   26 am
    44   26   27 1
    45   26   50 1
    46   27   28 1
    47   27   33 1
    48   27   51 1
    49   28   29 1
    50   28   52 1
    51   28   53 1
    52   29   30 1
    53   29   54 1
    54   29   55 1
    55   30   31 2
    56   30   32 1
    57   33   34 2
    58   33   35 1
@<TRIPOS>MOLECULE
CHEMBL296545
   69    72     0     0     0
SMALL
USER_CHARGES

@<TRIPOS>ATOM
      1 C1          0.4041    1.3182    0.9527 C.ar      1 <0>        -0.1361
      2 C2          0.9300    2.0680   -0.0842 C.ar      1 <0>        -0.1264
      3 C3          1.7203    1.4711   -1.0484 C.ar      1 <0>        -0.0941
      4 C4          1.9918    0.1063   -0.9789 C.ar      1 <0>        -0.0923
      5 C5          1.4567   -0.6561    0.0769 C.ar      1 <0>        -0.0948
      6 C6          0.6630   -0.0376    1.0378 C.ar      1 <0>        -0.1120
      7 C7          1.7360   -2.1069    0.1636 C.2       1 <0>         0.5708
      8 O1          2.8840   -2.5057    0.1651 O.2       1 <0>        -0.4944
      9 N1          0.7172   -2.9859    0.2408 N.am      1 <0>        -0.7351
     10 C8          0.9937   -4.4220    0.3266 C.3       1 <0>         0.1253
     11 C9         -0.3263   -5.1919    0.4031 C.3       1 <0>        -0.1256
     12 C10        -0.0375   -6.6917    0.4927 C.3       1 <0>        -0.1070
     13 C11        -1.3575   -7.4615    0.5692 C.3       1 <0>         0.0794
     14 C12        -1.0733   -8.9263    0.7807 C.2       1 <0>         0.4939
     15 O2         -0.9830   -9.3726    1.9117 O.co2     1 <0>        -0.6984
     16 O3         -0.9336   -9.6650   -0.1791 O.co2     1 <0>        -0.6917
     17 N2         -2.0997   -7.2837   -0.6813 N.am      1 <0>        -0.6885
     18 C13        -3.4412   -7.4133   -0.6931 C.2       1 <0>         0.5552
     19 O4         -4.0355   -7.6778    0.3343 O.2       1 <0>        -0.5553
     20 C14        -4.1885   -7.2343   -1.9523 C.ar      1 <0>        -0.1736
     21 C15        -3.5062   -6.9360   -3.1354 C.ar      1 <0>        -0.0344
     22 C16        -4.2061   -6.7700   -4.3085 C.ar      1 <0>        -0.1993
     23 C17        -5.5924   -6.8986   -4.3179 C.ar      1 <0>         0.2302
     24 C18        -6.2748   -7.1952   -3.1412 C.ar      1 <0>        -0.2084
     25 C19        -5.5800   -7.3684   -1.9661 C.ar      1 <0>        -0.0151
     26 N3         -6.2967   -6.7299   -5.5048 N.pl3     1 <0>        -0.7392
     27 C20        -7.7555   -6.8648   -5.5163 C.3       1 <0>         0.1866
     28 C21        -8.2700   -6.6364   -6.9142 C.ar      1 <0>         0.0358
     29 C22        -8.4988   -7.7283   -7.7520 C.ar      1 <0>         0.1222
     30 N4         -8.9478   -7.5529   -8.9746 N.ar      1 <0>        -0.4508
     31 C23        -9.1881   -6.3141   -9.4212 C.ar      1 <0>         0.1724
     32 C24        -9.6683   -6.0951  -10.7216 C.ar      1 <0>        -0.2565
     33 C25        -9.9073   -4.8077  -11.1546 C.ar      1 <0>         0.2957
     34 C26        -9.6762   -3.7152  -10.3123 C.ar      1 <0>        -0.2780
     35 C27        -9.2092   -3.8977   -9.0419 C.ar      1 <0>         0.3067
     36 C28        -8.9548   -5.2054   -8.5681 C.ar      1 <0>        -0.0062
     37 N5         -8.5033   -5.4114   -7.3288 N.ar      1 <0>        -0.3859
     38 N6         -8.9838   -2.7993   -8.2160 N.pl3     1 <0>        -0.8469
     39 N7        -10.3844   -4.5928  -12.4470 N.pl3     1 <0>        -0.8652
     40 C29         2.8352   -0.5368   -2.0066 C.2       1 <0>         0.5119
     41 O5          3.3975    0.1459   -2.8509 O.co2     1 <0>        -0.6955
     42 O6          2.9712   -1.7519   -2.0132 O.co2     1 <0>        -0.6483
     43 H1         -0.2088    1.7956    1.7030 H         1 <0>         0.1160
     44 H2          0.7214    3.1262   -0.1409 H         1 <0>         0.1149
     45 H3          2.1270    2.0623   -1.8555 H         1 <0>         0.1290
     46 H4          0.2490   -0.6164    1.8502 H         1 <0>         0.1197
     47 H5         -0.1991   -2.6676    0.2395 H         1 <0>         0.3911
     48 H6          1.5483   -4.7387   -0.5568 H         1 <0>         0.0674
     49 H7          1.5852   -4.6255    1.2192 H         1 <0>         0.0609
     50 H8         -0.8809   -4.8752    1.2864 H         1 <0>         0.0644
     51 H9         -0.9178   -4.9884   -0.4896 H         1 <0>         0.0648
     52 H10         0.5171   -7.0083   -0.3906 H         1 <0>         0.0687
     53 H11         0.5540   -6.8951    1.3853 H         1 <0>         0.0787
     54 H12        -1.9513   -7.0828    1.4011 H         1 <0>         0.0822
     55 H13        -1.6257   -7.0728   -1.5009 H         1 <0>         0.3915
     56 H14        -2.4309   -6.8354   -3.1286 H         1 <0>         0.1275
     57 H15        -3.6796   -6.5395   -5.2228 H         1 <0>         0.1225
     58 H16        -7.3502   -7.2939   -3.1516 H         1 <0>         0.1225
     59 H17        -6.1095   -7.6032   -1.0546 H         1 <0>         0.1327
     60 H18        -5.8223   -6.5228   -6.3251 H         1 <0>         0.3994
     61 H19        -8.0303   -7.8669   -5.1872 H         1 <0>         0.0814
     62 H20        -8.1938   -6.1282   -4.8430 H         1 <0>         0.0791
     63 H21        -8.3047   -8.7279   -7.3921 H         1 <0>         0.1730
     64 H22        -9.8496   -6.9312  -11.3806 H         1 <0>         0.1317
     65 H23        -9.8692   -2.7149  -10.6711 H         1 <0>         0.1306
     66 H24        -9.1586   -1.9029   -8.5427 H         1 <0>         0.4031
     67 H25        -8.6521   -2.9307   -7.3140 H         1 <0>         0.4131
     68 H26       -10.5462   -5.3464  -13.0359 H         1 <0>         0.4025
     69 H27       -10.5544   -3.6896  -12.7573 H         1 <0>         0.4004
@<TRIPOS>BOND
     1    1    6 ar
     2    1    2 ar
     3    1   43 1
     4    2    3 ar
     5    2   44 1
     6    3    4 ar
     7    3   45 1
     8    4    5 ar
     9    4   40 1
    10    5    6 ar
    11    5    7 1
    12    6   46 1
    13    7    8 2
    14    7    9 am
    15    9   10 1
    16    9   47 1
    17   10   11 1
    18   10   48 1
    19   10   49 1
    20   11   12 1
    21   11   50 1
    22   11   51 1
    23   12   13 1
    24   12   52 1
    25   12   53 1
    26   13   14 1
    27   13   17 1
    28   13   54 1
    29   14   15 2
    30   14   16 1
    31   17   18 am
    32   17   55 1
    33   18   19 2
    34   18   20 1
    35   20   25 ar
    36   20   21 ar
    37   21   22 ar
    38   21   56 1
    39   22   23 ar
    40   22   57 1
    41   23   24 ar
    42   23   26 1
    43   24   25 ar
    44   24   58 1
    45   25   59 1
    46   26   27 1
    47   26   60 1
    48   27   28 1
    49   27   61 1
    50   27   62 1
    51   28   37 ar
    52   28   29 ar
    53   29   30 ar
    54   29   63 1
    55   30   31 ar
    56   31   36 ar
    57   31   32 ar
    58   32   33 ar
    59   32   64 1
    60   33   34 ar
    61   33   39 1
    62   34   35 ar
    63   34   65 1
    64   35   36 ar
    65   35   38 1
    66   36   37 ar
    67   38   66 1
    68   38   67 1
    69   39   68 1
    70   39   69 1
    71   40   41 2
    72   40   42 1
@<TRIPOS>MOLECULE
CHEMBL296545__1
   69    72     0     0     0
SMALL
USER_CHARGES

@<TRIPOS>ATOM
      1 C1          0.4041    1.3182    0.9527 C.ar      1 <0>        -0.1364
      2 C2          0.9300    2.0680   -0.0842 C.ar      1 <0>        -0.1263
      3 C3          1.7203    1.4711   -1.0484 C.ar      1 <0>        -0.0938
      4 C4          1.9918    0.1063   -0.9789 C.ar      1 <0>        -0.0918
      5 C5          1.4567   -0.6561    0.0769 C.ar      1 <0>        -0.0950
      6 C6          0.6630   -0.0376    1.0378 C.ar      1 <0>        -0.1121
      7 C7          1.7360   -2.1069    0.1636 C.2       1 <0>         0.5708
      8 O1          2.8840   -2.5057    0.1651 O.2       1 <0>        -0.4946
      9 N1          0.7172   -2.9859    0.2408 N.am      1 <0>        -0.7350
     10 C8          0.9937   -4.4220    0.3266 C.3       1 <0>         0.1253
     11 C9         -0.3263   -5.1919    0.4031 C.3       1 <0>        -0.1259
     12 C10        -0.0375   -6.6917    0.4927 C.3       1 <0>        -0.1053
     13 C11        -1.3575   -7.4615    0.5692 C.3       1 <0>         0.0777
     14 C12        -1.0784   -8.9420    0.5336 C.2       1 <0>         0.4928
     15 O2         -1.2554   -9.6199    1.5315 O.co2     1 <0>        -0.6912
     16 O3         -0.6756   -9.4619   -0.4930 O.co2     1 <0>        -0.6978
     17 N2         -2.0478   -7.1245    1.8167 N.am      1 <0>        -0.6873
     18 C13        -3.3873   -7.2480    1.9003 C.2       1 <0>         0.5582
     19 O4         -4.0229   -7.6392    0.9403 O.2       1 <0>        -0.5550
     20 C14        -4.0823   -6.9087    3.1565 C.ar      1 <0>        -0.1698
     21 C15        -3.3537   -6.4534    4.2592 C.ar      1 <0>        -0.0361
     22 C16        -4.0050   -6.1372    5.4294 C.ar      1 <0>        -0.2004
     23 C17        -5.3880   -6.2708    5.5160 C.ar      1 <0>         0.2288
     24 C18        -6.1165   -6.7244    4.4197 C.ar      1 <0>        -0.2072
     25 C19        -5.4717   -7.0363    3.2447 C.ar      1 <0>        -0.0151
     26 N3         -6.0432   -5.9509    6.7000 N.pl3     1 <0>        -0.7395
     27 C20        -7.4985   -6.0909    6.7928 C.3       1 <0>         0.1863
     28 C21        -7.9556   -5.6831    8.1697 C.ar      1 <0>         0.0362
     29 C22        -8.4041   -4.3806    8.3899 C.ar      1 <0>         0.1223
     30 N4         -8.8079   -4.0030    9.5823 N.ar      1 <0>        -0.4503
     31 C23        -8.7888   -4.8769   10.5961 C.ar      1 <0>         0.1723
     32 C24        -9.2142   -4.5035   11.8803 C.ar      1 <0>        -0.2559
     33 C25        -9.1838   -5.4251   12.9057 C.ar      1 <0>         0.2954
     34 C26        -8.7329   -6.7301   12.6816 C.ar      1 <0>        -0.2778
     35 C27        -8.3129   -7.1220   11.4425 C.ar      1 <0>         0.3062
     36 C28        -8.3324   -6.2005   10.3702 C.ar      1 <0>        -0.0064
     37 N5         -7.9324   -6.5600    9.1483 N.ar      1 <0>        -0.3862
     38 N6         -7.8665   -8.4249   11.2360 N.pl3     1 <0>        -0.8475
     39 N7         -9.6070   -5.0516   14.1807 N.pl3     1 <0>        -0.8651
     40 C29         2.8352   -0.5368   -2.0066 C.2       1 <0>         0.5114
     41 O5          3.3975    0.1459   -2.8509 O.co2     1 <0>        -0.6953
     42 O6          2.9712   -1.7519   -2.0132 O.co2     1 <0>        -0.6478
     43 H1         -0.2088    1.7956    1.7030 H         1 <0>         0.1159
     44 H2          0.7214    3.1262   -0.1409 H         1 <0>         0.1149
     45 H3          2.1270    2.0623   -1.8555 H         1 <0>         0.1292
     46 H4          0.2490   -0.6164    1.8502 H         1 <0>         0.1192
     47 H5         -0.1991   -2.6676    0.2395 H         1 <0>         0.3911
     48 H6          1.5483   -4.7387   -0.5568 H         1 <0>         0.0686
     49 H7          1.5852   -4.6255    1.2192 H         1 <0>         0.0595
     50 H8         -0.8809   -4.8752    1.2864 H         1 <0>         0.0619
     51 H9         -0.9178   -4.9884   -0.4896 H         1 <0>         0.0669
     52 H10         0.5171   -7.0083   -0.3906 H         1 <0>         0.0850
     53 H11         0.5540   -6.8951    1.3853 H         1 <0>         0.0629
     54 H12        -1.9863   -7.1898   -0.2788 H         1 <0>         0.0839
     55 H13        -1.5408   -6.8125    2.5825 H         1 <0>         0.3883
     56 H14        -2.2807   -6.3502    4.1928 H         1 <0>         0.1259
     57 H15        -3.4426   -5.7854    6.2817 H         1 <0>         0.1210
     58 H16        -7.1893   -6.8273    4.4901 H         1 <0>         0.1226
     59 H17        -6.0378   -7.3836    2.3931 H         1 <0>         0.1332
     60 H18        -5.5366   -5.6351    7.4645 H         1 <0>         0.3987
     61 H19        -7.9732   -5.4519    6.0482 H         1 <0>         0.0816
     62 H20        -7.7760   -7.1291    6.6105 H         1 <0>         0.0793
     63 H21        -8.4194   -3.6752    7.5723 H         1 <0>         0.1732
     64 H22        -9.5635   -3.4983   12.0648 H         1 <0>         0.1320
     65 H23        -8.7164   -7.4363   13.4985 H         1 <0>         0.1303
     66 H24        -7.8535   -9.0556   11.9728 H         1 <0>         0.4028
     67 H25        -7.5685   -8.7016   10.3553 H         1 <0>         0.4130
     68 H26        -9.9204   -4.1480   14.3424 H         1 <0>         0.4027
     69 H27        -9.5879   -5.6954   14.9060 H         1 <0>         0.4003
@<TRIPOS>BOND
     1    1    6 ar
     2    1    2 ar
     3    1   43 1
     4    2    3 ar
     5    2   44 1
     6    3    4 ar
     7    3   45 1
     8    4    5 ar
     9    4   40 1
    10    5    6 ar
    11    5    7 1
    12    6   46 1
    13    7    8 2
    14    7    9 am
    15    9   10 1
    16    9   47 1
    17   10   11 1
    18   10   48 1
    19   10   49 1
    20   11   12 1
    21   11   50 1
    22   11   51 1
    23   12   13 1
    24   12   52 1
    25   12   53 1
    26   13   14 1
    27   13   17 1
    28   13   54 1
    29   14   15 2
    30   14   16 1
    31   17   18 am
    32   17   55 1
    33   18   19 2
    34   18   20 1
    35   20   25 ar
    36   20   21 ar
    37   21   22 ar
    38   21   56 1
    39   22   23 ar
    40   22   57 1
    41   23   24 ar
    42   23   26 1
    43   24   25 ar
    44   24   58 1
    45   25   59 1
    46   26   27 1
    47   26   60 1
    48   27   28 1
    49   27   61 1
    50   27   62 1
    51   28   37 ar
    52   28   29 ar
    53   29   30 ar
    54   29   63 1
    55   30   31 ar
    56   31   36 ar
    57   31   32 ar
    58   32   33 ar
    59   32   64 1
    60   33   34 ar
    61   33   39 1
    62   34   35 ar
    63   34   65 1
    64   35   36 ar
    65   35   38 1
    66   36   37 ar
    67   38   66 1
    68   38   67 1
    69   39   68 1
    70   39   69 1
    71   40   41 2
    72   40   42 1
@<TRIPOS>MOLECULE
CHEMBL297088
   70    73     0     0     0
SMALL
USER_CHARGES

@<TRIPOS>ATOM
      1 C1          0.4041    1.3182    0.9527 C.ar      1 <0>        -0.1357
      2 C2          0.9300    2.0680   -0.0842 C.ar      1 <0>        -0.1258
      3 C3          1.7203    1.4711   -1.0484 C.ar      1 <0>        -0.0940
      4 C4          1.9918    0.1063   -0.9789 C.ar      1 <0>        -0.0927
      5 C5          1.4567   -0.6561    0.0769 C.ar      1 <0>        -0.0955
      6 C6          0.6630   -0.0376    1.0378 C.ar      1 <0>        -0.1122
      7 C7          1.7360   -2.1069    0.1636 C.2       1 <0>         0.5707
      8 O1          2.8840   -2.5057    0.1651 O.2       1 <0>        -0.4925
      9 N1          0.7172   -2.9859    0.2408 N.am      1 <0>        -0.7359
     10 C8          0.9937   -4.4220    0.3266 C.3       1 <0>         0.1248
     11 C9         -0.3263   -5.1919    0.4031 C.3       1 <0>        -0.1248
     12 C10        -0.0375   -6.6917    0.4927 C.3       1 <0>        -0.1080
     13 C11        -1.3575   -7.4615    0.5692 C.3       1 <0>         0.0785
     14 C12        -1.0733   -8.9263    0.7807 C.2       1 <0>         0.4938
     15 O2         -0.9830   -9.3726    1.9117 O.co2     1 <0>        -0.6944
     16 O3         -0.9336   -9.6650   -0.1791 O.co2     1 <0>        -0.6933
     17 N2         -2.0997   -7.2837   -0.6813 N.am      1 <0>        -0.6851
     18 C13        -3.4412   -7.4133   -0.6931 C.2       1 <0>         0.5503
     19 O4         -4.0355   -7.6778    0.3343 O.2       1 <0>        -0.5510
     20 C14        -4.1885   -7.2343   -1.9523 C.ar      1 <0>        -0.1594
     21 C15        -3.5062   -6.9360   -3.1354 C.ar      1 <0>        -0.0361
     22 C16        -4.2061   -6.7700   -4.3085 C.ar      1 <0>        -0.1929
     23 C17        -5.5924   -6.8986   -4.3179 C.ar      1 <0>         0.2155
     24 C18        -6.2748   -7.1952   -3.1412 C.ar      1 <0>        -0.2043
     25 C19        -5.5800   -7.3684   -1.9661 C.ar      1 <0>        -0.0176
     26 N3         -6.2967   -6.7299   -5.5048 N.pl3     1 <0>        -0.7486
     27 C20        -7.7555   -6.8648   -5.5163 C.3       1 <0>         0.1587
     28 C21        -8.2700   -6.6364   -6.9142 C.ar      1 <0>        -0.0975
     29 C22        -8.6103   -5.3489   -7.3187 C.ar      1 <0>        -0.0013
     30 C23        -9.0790   -5.1085   -8.5762 C.ar      1 <0>        -0.1453
     31 C24        -9.2208   -6.1728   -9.4771 C.ar      1 <0>         0.2044
     32 C25        -8.8736   -7.4819   -9.0636 C.ar      1 <0>        -0.1940
     33 C26        -8.3907   -7.6937   -7.7678 C.ar      1 <0>        -0.0189
     34 C27        -9.0248   -8.5421   -9.9919 C.ar      1 <0>         0.5643
     35 N4         -9.4838   -8.2573  -11.2017 N.ar      1 <0>        -0.5991
     36 C28        -9.7982   -7.0126  -11.5489 C.ar      1 <0>         0.6924
     37 N5         -9.6769   -5.9892  -10.7250 N.ar      1 <0>        -0.5838
     38 N6        -10.2719   -6.7810  -12.8276 N.pl3     1 <0>        -0.7914
     39 N7         -8.7022   -9.8365   -9.6450 N.pl3     1 <0>        -0.7644
     40 C29         2.8352   -0.5368   -2.0066 C.2       1 <0>         0.5121
     41 O5          3.3975    0.1459   -2.8509 O.co2     1 <0>        -0.6947
     42 O6          2.9712   -1.7519   -2.0132 O.co2     1 <0>        -0.6496
     43 H1         -0.2088    1.7956    1.7030 H         1 <0>         0.1165
     44 H2          0.7214    3.1262   -0.1409 H         1 <0>         0.1155
     45 H3          2.1270    2.0623   -1.8555 H         1 <0>         0.1293
     46 H4          0.2490   -0.6164    1.8502 H         1 <0>         0.1196
     47 H5         -0.1991   -2.6676    0.2395 H         1 <0>         0.3904
     48 H6          1.5483   -4.7387   -0.5568 H         1 <0>         0.0672
     49 H7          1.5852   -4.6255    1.2192 H         1 <0>         0.0618
     50 H8         -0.8809   -4.8752    1.2864 H         1 <0>         0.0649
     51 H9         -0.9178   -4.9884   -0.4896 H         1 <0>         0.0630
     52 H10         0.5171   -7.0083   -0.3906 H         1 <0>         0.0690
     53 H11         0.5540   -6.8951    1.3853 H         1 <0>         0.0807
     54 H12        -1.9513   -7.0828    1.4011 H         1 <0>         0.0837
     55 H13        -1.6257   -7.0728   -1.5009 H         1 <0>         0.3913
     56 H14        -2.4309   -6.8354   -3.1286 H         1 <0>         0.1310
     57 H15        -3.6796   -6.5395   -5.2228 H         1 <0>         0.1236
     58 H16        -7.3502   -7.2939   -3.1516 H         1 <0>         0.1212
     59 H17        -6.1095   -7.6032   -1.0546 H         1 <0>         0.1356
     60 H18        -5.8223   -6.5228   -6.3251 H         1 <0>         0.3990
     61 H19        -8.0303   -7.8669   -5.1872 H         1 <0>         0.0788
     62 H20        -8.1938   -6.1282   -4.8430 H         1 <0>         0.0817
     63 H21        -8.5016   -4.5277   -6.6258 H         1 <0>         0.1597
     64 H22        -9.3399   -4.1043   -8.8761 H         1 <0>         0.1597
     65 H23        -8.1191   -8.6876   -7.4443 H         1 <0>         0.1524
     66 H24       -10.3687   -7.5187  -13.4500 H         1 <0>         0.4435
     67 H25       -10.5073   -5.8809  -13.1020 H         1 <0>         0.4298
     68 H26        -8.3669  -10.0311   -8.7559 H         1 <0>         0.4337
     69 H27        -8.8106  -10.5528  -10.2900 H         1 <0>         0.4321
     70 H28        -9.9194   -5.0987  -11.0234 H         1 <0>         0.4398
@<TRIPOS>BOND
     1    1    6 ar
     2    1    2 ar
     3    1   43 1
     4    2    3 ar
     5    2   44 1
     6    3    4 ar
     7    3   45 1
     8    4    5 ar
     9    4   40 1
    10    5    6 ar
    11    5    7 1
    12    6   46 1
    13    7    8 2
    14    7    9 am
    15    9   10 1
    16    9   47 1
    17   10   11 1
    18   10   48 1
    19   10   49 1
    20   11   12 1
    21   11   50 1
    22   11   51 1
    23   12   13 1
    24   12   52 1
    25   12   53 1
    26   13   14 1
    27   13   17 1
    28   13   54 1
    29   14   15 2
    30   14   16 1
    31   17   18 am
    32   17   55 1
    33   18   19 2
    34   18   20 1
    35   20   25 ar
    36   20   21 ar
    37   21   22 ar
    38   21   56 1
    39   22   23 ar
    40   22   57 1
    41   23   24 ar
    42   23   26 1
    43   24   25 ar
    44   24   58 1
    45   25   59 1
    46   26   27 1
    47   26   60 1
    48   27   28 1
    49   27   61 1
    50   27   62 1
    51   28   33 ar
    52   28   29 ar
    53   29   30 ar
    54   29   63 1
    55   30   31 ar
    56   30   64 1
    57   31   37 ar
    58   31   32 ar
    59   32   33 ar
    60   32   34 ar
    61   33   65 1
    62   34   35 ar
    63   34   39 1
    64   35   36 ar
    65   36   37 ar
    66   36   38 1
    67   37   70 1
    68   38   66 1
    69   38   67 1
    70   39   68 1
    71   39   69 1
    72   40   41 2
    73   40   42 1
@<TRIPOS>MOLECULE
CHEMBL297088__1
   70    73     0     0     0
SMALL
USER_CHARGES

@<TRIPOS>ATOM
      1 C1          0.4041    1.3182    0.9527 C.ar      1 <0>        -0.1378
      2 C2          0.9300    2.0680   -0.0842 C.ar      1 <0>        -0.1256
      3 C3          1.7203    1.4711   -1.0484 C.ar      1 <0>        -0.0927
      4 C4          1.9918    0.1063   -0.9789 C.ar      1 <0>        -0.0902
      5 C5          1.4567   -0.6561    0.0769 C.ar      1 <0>        -0.0954
      6 C6          0.6630   -0.0376    1.0378 C.ar      1 <0>        -0.1132
      7 C7          1.7360   -2.1069    0.1636 C.2       1 <0>         0.5703
      8 O1          2.8840   -2.5057    0.1651 O.2       1 <0>        -0.4921
      9 N1          0.7172   -2.9859    0.2408 N.am      1 <0>        -0.7358
     10 C8          0.9937   -4.4220    0.3266 C.3       1 <0>         0.1246
     11 C9         -0.3263   -5.1919    0.4031 C.3       1 <0>        -0.1248
     12 C10        -0.0375   -6.6917    0.4927 C.3       1 <0>        -0.1064
     13 C11        -1.3575   -7.4615    0.5692 C.3       1 <0>         0.0768
     14 C12        -1.0784   -8.9420    0.5336 C.2       1 <0>         0.4927
     15 O2         -1.2554   -9.6199    1.5315 O.co2     1 <0>        -0.6928
     16 O3         -0.6756   -9.4619   -0.4930 O.co2     1 <0>        -0.6934
     17 N2         -2.0478   -7.1245    1.8167 N.am      1 <0>        -0.6839
     18 C13        -3.3873   -7.2480    1.9003 C.2       1 <0>         0.5534
     19 O4         -4.0229   -7.6392    0.9403 O.2       1 <0>        -0.5506
     20 C14        -4.0823   -6.9087    3.1565 C.ar      1 <0>        -0.1557
     21 C15        -3.3537   -6.4534    4.2592 C.ar      1 <0>        -0.0378
     22 C16        -4.0050   -6.1372    5.4294 C.ar      1 <0>        -0.1941
     23 C17        -5.3880   -6.2708    5.5160 C.ar      1 <0>         0.2140
     24 C18        -6.1165   -6.7244    4.4197 C.ar      1 <0>        -0.2031
     25 C19        -5.4717   -7.0363    3.2447 C.ar      1 <0>        -0.0176
     26 N3         -6.0432   -5.9509    6.7000 N.pl3     1 <0>        -0.7488
     27 C20        -7.4985   -6.0909    6.7928 C.3       1 <0>         0.1584
     28 C21        -7.9556   -5.6831    8.1697 C.ar      1 <0>        -0.0975
     29 C22        -8.0243   -6.6371    9.1808 C.ar      1 <0>        -0.0017
     30 C23        -8.4341   -6.3011   10.4369 C.ar      1 <0>        -0.1457
     31 C24        -8.7918   -4.9751   10.7166 C.ar      1 <0>         0.2045
     32 C25        -8.7207   -4.0060    9.6865 C.ar      1 <0>        -0.1939
     33 C26        -8.2912   -4.3828    8.4095 C.ar      1 <0>        -0.0188
     34 C27        -9.0868   -2.6715    9.9928 C.ar      1 <0>         0.5642
     35 N4         -9.4779   -2.3951   11.2282 N.ar      1 <0>        -0.5988
     36 C28        -9.5301   -3.3366   12.1662 C.ar      1 <0>         0.6924
     37 N5         -9.2008   -4.5933   11.9355 N.ar      1 <0>        -0.5841
     38 N6         -9.9465   -2.9834   13.4370 N.pl3     1 <0>        -0.7912
     39 N7         -9.0369   -1.6863    9.0302 N.pl3     1 <0>        -0.7640
     40 C29         2.8352   -0.5368   -2.0066 C.2       1 <0>         0.5105
     41 O5          3.3975    0.1459   -2.8509 O.co2     1 <0>        -0.6928
     42 O6          2.9712   -1.7519   -2.0132 O.co2     1 <0>        -0.6479
     43 H1         -0.2088    1.7956    1.7030 H         1 <0>         0.1146
     44 H2          0.7214    3.1262   -0.1409 H         1 <0>         0.1154
     45 H3          2.1270    2.0623   -1.8555 H         1 <0>         0.1303
     46 H4          0.2490   -0.6164    1.8502 H         1 <0>         0.1176
     47 H5         -0.1991   -2.6676    0.2395 H         1 <0>         0.3902
     48 H6          1.5483   -4.7387   -0.5568 H         1 <0>         0.0697
     49 H7          1.5852   -4.6255    1.2192 H         1 <0>         0.0595
     50 H8         -0.8809   -4.8752    1.2864 H         1 <0>         0.0598
     51 H9         -0.9178   -4.9884   -0.4896 H         1 <0>         0.0672
     52 H10         0.5171   -7.0083   -0.3906 H         1 <0>         0.0870
     53 H11         0.5540   -6.8951    1.3853 H         1 <0>         0.0634
     54 H12        -1.9863   -7.1898   -0.2788 H         1 <0>         0.0851
     55 H13        -1.5408   -6.8125    2.5825 H         1 <0>         0.3881
     56 H14        -2.2807   -6.3502    4.1928 H         1 <0>         0.1294
     57 H15        -3.4426   -5.7854    6.2817 H         1 <0>         0.1221
     58 H16        -7.1893   -6.8273    4.4901 H         1 <0>         0.1213
     59 H17        -6.0378   -7.3836    2.3931 H         1 <0>         0.1360
     60 H18        -5.5366   -5.6351    7.4645 H         1 <0>         0.3983
     61 H19        -7.9732   -5.4519    6.0482 H         1 <0>         0.0790
     62 H20        -7.7760   -7.1291    6.6105 H         1 <0>         0.0818
     63 H21        -7.7490   -7.6594    8.9669 H         1 <0>         0.1595
     64 H22        -8.4832   -7.0520   11.2115 H         1 <0>         0.1593
     65 H23        -8.2295   -3.6503    7.6183 H         1 <0>         0.1525
     66 H24       -10.1930   -2.0651   13.6288 H         1 <0>         0.4437
     67 H25        -9.9921   -3.6540   14.1363 H         1 <0>         0.4297
     68 H26        -8.7484   -1.9023    8.1297 H         1 <0>         0.4337
     69 H27        -9.2902   -0.7769    9.2534 H         1 <0>         0.4325
     70 H28        -9.2553   -5.2451   12.6518 H         1 <0>         0.4396
@<TRIPOS>BOND
     1    1    6 ar
     2    1    2 ar
     3    1   43 1
     4    2    3 ar
     5    2   44 1
     6    3    4 ar
     7    3   45 1
     8    4    5 ar
     9    4   40 1
    10    5    6 ar
    11    5    7 1
    12    6   46 1
    13    7    8 2
    14    7    9 am
    15    9   10 1
    16    9   47 1
    17   10   11 1
    18   10   48 1
    19   10   49 1
    20   11   12 1
    21   11   50 1
    22   11   51 1
    23   12   13 1
    24   12   52 1
    25   12   53 1
    26   13   14 1
    27   13   17 1
    28   13   54 1
    29   14   15 2
    30   14   16 1
    31   17   18 am
    32   17   55 1
    33   18   19 2
    34   18   20 1
    35   20   25 ar
    36   20   21 ar
    37   21   22 ar
    38   21   56 1
    39   22   23 ar
    40   22   57 1
    41   23   24 ar
    42   23   26 1
    43   24   25 ar
    44   24   58 1
    45   25   59 1
    46   26   27 1
    47   26   60 1
    48   27   28 1
    49   27   61 1
    50   27   62 1
    51   28   33 ar
    52   28   29 ar
    53   29   30 ar
    54   29   63 1
    55   30   31 ar
    56   30   64 1
    57   31   37 ar
    58   31   32 ar
    59   32   33 ar
    60   32   34 ar
    61   33   65 1
    62   34   35 ar
    63   34   39 1
    64   35   36 ar
    65   36   37 ar
    66   36   38 1
    67   37   70 1
    68   38   66 1
    69   38   67 1
    70   39   68 1
    71   39   69 1
    72   40   41 2
    73   40   42 1
@<TRIPOS>MOLECULE
CHEMBL47689
   70    73     0     0     0
SMALL
USER_CHARGES

@<TRIPOS>ATOM
      1 C1          0.4041    1.3182    0.9527 C.ar      1 <0>        -0.1361
      2 C2          0.9300    2.0680   -0.0842 C.ar      1 <0>        -0.1261
      3 C3          1.7203    1.4711   -1.0484 C.ar      1 <0>        -0.0939
      4 C4          1.9918    0.1063   -0.9789 C.ar      1 <0>        -0.0922
      5 C5          1.4567   -0.6561    0.0769 C.ar      1 <0>        -0.0953
      6 C6          0.6630   -0.0376    1.0378 C.ar      1 <0>        -0.1122
      7 C7          1.7360   -2.1069    0.1636 C.2       1 <0>         0.5711
      8 O1          2.8840   -2.5057    0.1651 O.2       1 <0>        -0.4941
      9 N1          0.7172   -2.9859    0.2408 N.am      1 <0>        -0.7354
     10 C8          0.9937   -4.4220    0.3266 C.3       1 <0>         0.1253
     11 C9         -0.3263   -5.1919    0.4031 C.3       1 <0>        -0.1259
     12 C10        -0.0375   -6.6917    0.4927 C.3       1 <0>        -0.1072
     13 C11        -1.3575   -7.4615    0.5692 C.3       1 <0>         0.0783
     14 C12        -1.0733   -8.9263    0.7807 C.2       1 <0>         0.4939
     15 O2         -0.9830   -9.3726    1.9117 O.co2     1 <0>        -0.6966
     16 O3         -0.9336   -9.6650   -0.1791 O.co2     1 <0>        -0.6912
     17 N2         -2.0997   -7.2837   -0.6813 N.am      1 <0>        -0.6844
     18 C13        -3.4412   -7.4133   -0.6931 C.2       1 <0>         0.5486
     19 O4         -4.0352   -7.6777    0.3339 O.2       1 <0>        -0.5479
     20 C14        -4.1902   -7.2339   -1.9551 C.ar      1 <0>        -0.1164
     21 C15        -3.5105   -6.9360   -3.1372 C.ar      1 <0>        -0.0818
     22 C16        -4.2154   -6.7703   -4.3115 C.ar      1 <0>        -0.1215
     23 C17        -5.5930   -6.8984   -4.3190 C.ar      1 <0>        -0.0724
     24 C18        -6.2729   -7.1932   -3.1505 C.ar      1 <0>        -0.1252
     25 C19        -5.5795   -7.3675   -1.9707 C.ar      1 <0>        -0.0632
     26 C20        -6.3565   -6.7156   -5.6054 C.3       1 <0>        -0.0705
     27 C21        -6.4823   -8.0627   -6.3196 C.3       1 <0>        -0.0593
     28 C22        -7.2457   -7.8799   -7.6060 C.ar      1 <0>         0.0666
     29 C23        -6.5683   -7.4855   -8.7600 C.ar      1 <0>         0.1115
     30 N3         -7.2136   -7.3203   -9.8930 N.ar      1 <0>        -0.4491
     31 C24        -8.5344   -7.5327   -9.9406 C.ar      1 <0>         0.1625
     32 C25        -9.2507   -7.3651  -11.1358 C.ar      1 <0>        -0.2520
     33 C26       -10.6110   -7.5914  -11.1553 C.ar      1 <0>         0.2872
     34 C27       -11.2872   -7.9861   -9.9963 C.ar      1 <0>        -0.2759
     35 C28       -10.6164   -8.1572   -8.8189 C.ar      1 <0>         0.3009
     36 C29        -9.2212   -7.9335   -8.7664 C.ar      1 <0>        -0.0025
     37 N4         -8.5413   -8.0990   -7.6295 N.ar      1 <0>        -0.4055
     38 N5        -11.3045   -8.5502   -7.6736 N.pl3     1 <0>        -0.8504
     39 N6        -11.3204   -7.4242  -12.3440 N.pl3     1 <0>        -0.8677
     40 C30         2.8352   -0.5368   -2.0066 C.2       1 <0>         0.5121
     41 O5          3.3975    0.1459   -2.8509 O.co2     1 <0>        -0.6951
     42 O6          2.9712   -1.7519   -2.0132 O.co2     1 <0>        -0.6487
     43 H1         -0.2088    1.7956    1.7030 H         1 <0>         0.1161
     44 H2          0.7214    3.1262   -0.1409 H         1 <0>         0.1151
     45 H3          2.1270    2.0623   -1.8555 H         1 <0>         0.1293
     46 H4          0.2490   -0.6164    1.8502 H         1 <0>         0.1195
     47 H5         -0.1991   -2.6676    0.2395 H         1 <0>         0.3910
     48 H6          1.5483   -4.7387   -0.5568 H         1 <0>         0.0677
     49 H7          1.5852   -4.6255    1.2192 H         1 <0>         0.0611
     50 H8         -0.8809   -4.8752    1.2864 H         1 <0>         0.0646
     51 H9         -0.9178   -4.9884   -0.4896 H         1 <0>         0.0644
     52 H10         0.5171   -7.0083   -0.3906 H         1 <0>         0.0695
     53 H11         0.5540   -6.8951    1.3853 H         1 <0>         0.0799
     54 H12        -1.9513   -7.0828    1.4011 H         1 <0>         0.0832
     55 H13        -1.6257   -7.0728   -1.5009 H         1 <0>         0.3929
     56 H14        -2.4353   -6.8351   -3.1326 H         1 <0>         0.1291
     57 H15        -3.6907   -6.5398   -5.2269 H         1 <0>         0.1273
     58 H16        -7.3483   -7.2915   -3.1630 H         1 <0>         0.1234
     59 H17        -6.1108   -7.6023   -1.0602 H         1 <0>         0.1334
     60 H18        -7.3507   -6.3265   -5.3856 H         1 <0>         0.0738
     61 H19        -5.8248   -6.0126   -6.2466 H         1 <0>         0.0756
     62 H20        -5.4881   -8.4518   -6.5393 H         1 <0>         0.0895
     63 H21        -7.0140   -8.7657   -5.6783 H         1 <0>         0.0869
     64 H22        -5.5028   -7.3137   -8.7219 H         1 <0>         0.1723
     65 H23        -8.7388   -7.0599  -12.0364 H         1 <0>         0.1304
     66 H24       -12.3529   -8.1575  -10.0327 H         1 <0>         0.1282
     67 H25       -12.2617   -8.7029   -7.7113 H         1 <0>         0.4011
     68 H26       -10.8266   -8.6712   -6.8383 H         1 <0>         0.4120
     69 H27       -10.8570   -7.1502  -13.1509 H         1 <0>         0.4018
     70 H28       -12.2773   -7.5818  -12.3639 H         1 <0>         0.3989
@<TRIPOS>BOND
     1    1    6 ar
     2    1    2 ar
     3    1   43 1
     4    2    3 ar
     5    2   44 1
     6    3    4 ar
     7    3   45 1
     8    4    5 ar
     9    4   40 1
    10    5    6 ar
    11    5    7 1
    12    6   46 1
    13    7    8 2
    14    7    9 am
    15    9   10 1
    16    9   47 1
    17   10   11 1
    18   10   48 1
    19   10   49 1
    20   11   12 1
    21   11   50 1
    22   11   51 1
    23   12   13 1
    24   12   52 1
    25   12   53 1
    26   13   14 1
    27   13   17 1
    28   13   54 1
    29   14   15 2
    30   14   16 1
    31   17   18 am
    32   17   55 1
    33   18   19 2
    34   18   20 1
    35   20   25 ar
    36   20   21 ar
    37   21   22 ar
    38   21   56 1
    39   22   23 ar
    40   22   57 1
    41   23   24 ar
    42   23   26 1
    43   24   25 ar
    44   24   58 1
    45   25   59 1
    46   26   27 1
    47   26   60 1
    48   26   61 1
    49   27   28 1
    50   27   62 1
    51   27   63 1
    52   28   37 ar
    53   28   29 ar
    54   29   30 ar
    55   29   64 1
    56   30   31 ar
    57   31   36 ar
    58   31   32 ar
    59   32   33 ar
    60   32   65 1
    61   33   34 ar
    62   33   39 1
    63   34   35 ar
    64   34   66 1
    65   35   36 ar
    66   35   38 1
    67   36   37 ar
    68   38   67 1
    69   38   68 1
    70   39   69 1
    71   39   70 1
    72   40   41 2
    73   40   42 1
@<TRIPOS>MOLECULE
CHEMBL47689__1
   70    73     0     0     0
SMALL
USER_CHARGES

@<TRIPOS>ATOM
      1 C1          0.4041    1.3182    0.9527 C.ar      1 <0>        -0.1363
      2 C2          0.9300    2.0680   -0.0842 C.ar      1 <0>        -0.1261
      3 C3          1.7203    1.4711   -1.0484 C.ar      1 <0>        -0.0937
      4 C4          1.9918    0.1063   -0.9789 C.ar      1 <0>        -0.0918
      5 C5          1.4567   -0.6561    0.0769 C.ar      1 <0>        -0.0952
      6 C6          0.6630   -0.0376    1.0378 C.ar      1 <0>        -0.1121
      7 C7          1.7360   -2.1069    0.1636 C.2       1 <0>         0.5709
      8 O1          2.8840   -2.5057    0.1651 O.2       1 <0>        -0.4941
      9 N1          0.7172   -2.9859    0.2408 N.am      1 <0>        -0.7353
     10 C8          0.9937   -4.4220    0.3266 C.3       1 <0>         0.1253
     11 C9         -0.3263   -5.1919    0.4031 C.3       1 <0>        -0.1260
     12 C10        -0.0375   -6.6917    0.4927 C.3       1 <0>        -0.1056
     13 C11        -1.3575   -7.4615    0.5692 C.3       1 <0>         0.0767
     14 C12        -1.0784   -8.9420    0.5336 C.2       1 <0>         0.4929
     15 O2         -1.2554   -9.6199    1.5315 O.co2     1 <0>        -0.6910
     16 O3         -0.6756   -9.4619   -0.4930 O.co2     1 <0>        -0.6958
     17 N2         -2.0478   -7.1245    1.8167 N.am      1 <0>        -0.6832
     18 C13        -3.3873   -7.2480    1.9003 C.2       1 <0>         0.5516
     19 O4         -4.0226   -7.6390    0.9406 O.2       1 <0>        -0.5476
     20 C14        -4.0839   -6.9079    3.1592 C.ar      1 <0>        -0.1129
     21 C15        -3.3579   -6.4532    4.2612 C.ar      1 <0>        -0.0836
     22 C16        -4.0141   -6.1371    5.4328 C.ar      1 <0>        -0.1226
     23 C17        -5.3887   -6.2705    5.5171 C.ar      1 <0>        -0.0738
     24 C18        -6.1142   -6.7212    4.4286 C.ar      1 <0>        -0.1241
     25 C19        -5.4710   -7.0348    3.2491 C.ar      1 <0>        -0.0630
     26 C20        -6.0987   -5.9238    6.8003 C.3       1 <0>        -0.0702
     27 C21        -6.4988   -4.4472    6.7790 C.3       1 <0>        -0.0587
     28 C22        -7.2089   -4.1005    8.0622 C.ar      1 <0>         0.0656
     29 C23        -6.4653   -3.7421    9.1869 C.ar      1 <0>         0.1110
     30 N3         -7.0632   -3.4354   10.3163 N.ar      1 <0>        -0.4494
     31 C24        -8.3995   -3.4671   10.3888 C.ar      1 <0>         0.1627
     32 C25        -9.0665   -3.1443   11.5806 C.ar      1 <0>        -0.2526
     33 C26       -10.4442   -3.1852   11.6259 C.ar      1 <0>         0.2880
     34 C27       -11.1868   -3.5456   10.4966 C.ar      1 <0>        -0.2759
     35 C28       -10.5650   -3.8648    9.3232 C.ar      1 <0>         0.3012
     36 C29        -9.1536   -3.8318    9.2444 C.ar      1 <0>        -0.0024
     37 N4         -8.5218   -4.1340    8.1078 N.ar      1 <0>        -0.4049
     38 N5        -11.3188   -4.2220    8.2080 N.pl3     1 <0>        -0.8501
     39 N6        -11.1046   -2.8641   12.8112 N.pl3     1 <0>        -0.8675
     40 C30         2.8352   -0.5368   -2.0066 C.2       1 <0>         0.5114
     41 O5          3.3975    0.1459   -2.8509 O.co2     1 <0>        -0.6951
     42 O6          2.9712   -1.7519   -2.0132 O.co2     1 <0>        -0.6480
     43 H1         -0.2088    1.7956    1.7030 H         1 <0>         0.1160
     44 H2          0.7214    3.1262   -0.1409 H         1 <0>         0.1150
     45 H3          2.1270    2.0623   -1.8555 H         1 <0>         0.1293
     46 H4          0.2490   -0.6164    1.8502 H         1 <0>         0.1192
     47 H5         -0.1991   -2.6676    0.2395 H         1 <0>         0.3910
     48 H6          1.5483   -4.7387   -0.5568 H         1 <0>         0.0688
     49 H7          1.5852   -4.6255    1.2192 H         1 <0>         0.0598
     50 H8         -0.8809   -4.8752    1.2864 H         1 <0>         0.0615
     51 H9         -0.9178   -4.9884   -0.4896 H         1 <0>         0.0670
     52 H10         0.5171   -7.0083   -0.3906 H         1 <0>         0.0861
     53 H11         0.5540   -6.8951    1.3853 H         1 <0>         0.0637
     54 H12        -1.9863   -7.1898   -0.2788 H         1 <0>         0.0848
     55 H13        -1.5408   -6.8125    2.5825 H         1 <0>         0.3898
     56 H14        -2.2848   -6.3493    4.1969 H         1 <0>         0.1275
     57 H15        -3.4536   -5.7851    6.2862 H         1 <0>         0.1258
     58 H16        -7.1869   -6.8234    4.5010 H         1 <0>         0.1235
     59 H17        -6.0389   -7.3818    2.3986 H         1 <0>         0.1338
     60 H18        -6.9917   -6.5408    6.8996 H         1 <0>         0.0738
     61 H19        -5.4342   -6.1080    7.6445 H         1 <0>         0.0747
     62 H20        -5.6058   -3.8302    6.6797 H         1 <0>         0.0889
     63 H21        -7.1634   -4.2630    5.9348 H         1 <0>         0.0869
     64 H22        -5.3871   -3.7167    9.1289 H         1 <0>         0.1716
     65 H23        -8.5032   -2.8654   12.4588 H         1 <0>         0.1303
     66 H24       -12.2650   -3.5721   10.5534 H         1 <0>         0.1284
     67 H25       -12.2869   -4.2444    8.2638 H         1 <0>         0.4014
     68 H26       -10.8756   -4.4484    7.3753 H         1 <0>         0.4121
     69 H27       -10.5951   -2.6137   13.5978 H         1 <0>         0.4018
     70 H28       -12.0735   -2.8910   12.8493 H         1 <0>         0.3992
@<TRIPOS>BOND
     1    1    6 ar
     2    1    2 ar
     3    1   43 1
     4    2    3 ar
     5    2   44 1
     6    3    4 ar
     7    3   45 1
     8    4    5 ar
     9    4   40 1
    10    5    6 ar
    11    5    7 1
    12    6   46 1
    13    7    8 2
    14    7    9 am
    15    9   10 1
    16    9   47 1
    17   10   11 1
    18   10   48 1
    19   10   49 1
    20   11   12 1
    21   11   50 1
    22   11   51 1
    23   12   13 1
    24   12   52 1
    25   12   53 1
    26   13   14 1
    27   13   17 1
    28   13   54 1
    29   14   15 2
    30   14   16 1
    31   17   18 am
    32   17   55 1
    33   18   19 2
    34   18   20 1
    35   20   25 ar
    36   20   21 ar
    37   21   22 ar
    38   21   56 1
    39   22   23 ar
    40   22   57 1
    41   23   24 ar
    42   23   26 1
    43   24   25 ar
    44   24   58 1
    45   25   59 1
    46   26   27 1
    47   26   60 1
    48   26   61 1
    49   27   28 1
    50   27   62 1
    51   27   63 1
    52   28   37 ar
    53   28   29 ar
    54   29   30 ar
    55   29   64 1
    56   30   31 ar
    57   31   36 ar
    58   31   32 ar
    59   32   33 ar
    60   32   65 1
    61   33   34 ar
    62   33   39 1
    63   34   35 ar
    64   34   66 1
    65   35   36 ar
    66   35   38 1
    67   36   37 ar
    68   38   67 1
    69   38   68 1
    70   39   69 1
    71   39   70 1
    72   40   41 2
    73   40   42 1
@<TRIPOS>MOLECULE
CHEMBL290815
   57    59     0     0     0
SMALL
USER_CHARGES

@<TRIPOS>ATOM
      1 C1         -0.0169    1.3937    0.0097 C.ar      1 <0>        -0.0181
      2 C2          1.1662    2.0965    0.0022 C.ar      1 <0>        -0.2060
      3 C3          2.3811    1.4169   -0.0131 C.ar      1 <0>         0.2220
      4 C4          2.4034    0.0249   -0.0208 C.ar      1 <0>        -0.2021
      5 C5          1.2237   -0.6836   -0.0138 C.ar      1 <0>        -0.0360
      6 C6          0.0021   -0.0041    0.0020 C.ar      1 <0>        -0.1658
      7 C7         -1.2644   -0.7605    0.0105 C.2       1 <0>         0.5497
      8 O1         -2.3263   -0.1682    0.0243 O.2       1 <0>        -0.5607
      9 N1         -1.2445   -2.1081    0.0031 N.am      1 <0>        -0.6792
     10 C8         -2.5022   -2.8593    0.0116 C.3       1 <0>         0.0747
     11 C9         -2.2637   -4.2464    0.6114 C.3       1 <0>        -0.0824
     12 C10        -1.8670   -4.1047    2.0823 C.3       1 <0>        -0.1767
     13 C11        -1.6321   -5.4710    2.6731 C.2       1 <0>         0.4911
     14 O2         -1.7693   -6.4659    1.9818 O.co2     1 <0>        -0.6979
     15 O3         -1.3049   -5.5815    3.8424 O.co2     1 <0>        -0.7203
     16 C12        -3.0110   -3.0030   -1.3996 C.2       1 <0>         0.4982
     17 O4         -2.2242   -3.0459   -2.3300 O.co2     1 <0>        -0.6989
     18 O5         -4.2095   -3.0763   -1.6111 O.co2     1 <0>        -0.7029
     19 N2          3.5749    2.1299   -0.0211 N.pl3     1 <0>        -0.7474
     20 C13         4.8542    1.4162   -0.0371 C.3       1 <0>         0.1226
     21 C14         6.0023    2.4276   -0.0432 C.3       1 <0>        -0.1349
     22 C15         7.3384    1.6823   -0.0600 C.3       1 <0>         0.1624
     23 C16         8.4959    2.6872    0.0142 C.3       1 <0>        -0.1313
     24 C17         9.8161    1.9179    0.0506 C.3       1 <0>        -0.0548
     25 C18         9.8784    0.9198   -1.0752 C.2       1 <0>         0.1075
     26 C19         8.7503    0.4718   -1.6954 C.2       1 <0>         0.0160
     27 C20         8.8649   -0.4712   -2.7396 C.2       1 <0>         0.5335
     28 N3         10.0959   -0.8975   -3.0948 N.am      1 <0>        -0.6440
     29 C21        11.1887   -0.4119   -2.4443 C.2       1 <0>         0.5917
     30 N4         11.0727    0.4646   -1.4716 N.2       1 <0>        -0.5604
     31 N5         12.4374   -0.8464   -2.8118 N.pl3     1 <0>        -0.8322
     32 O6          7.8715   -0.8929   -3.3094 O.2       1 <0>        -0.5294
     33 N6          7.4769    0.9354   -1.3185 N.pl3     1 <0>        -0.7271
     34 H1         -0.9590    1.9215    0.0260 H         1 <0>         0.1328
     35 H2          1.1522    3.1764    0.0078 H         1 <0>         0.1195
     36 H3          3.3474   -0.4995   -0.0326 H         1 <0>         0.1216
     37 H4          1.2416   -1.7634   -0.0204 H         1 <0>         0.1282
     38 H5         -0.3974   -2.5806   -0.0078 H         1 <0>         0.3902
     39 H6         -3.2399   -2.3261    0.6112 H         1 <0>         0.0769
     40 H7         -3.1771   -4.8365    0.5367 H         1 <0>         0.0716
     41 H8         -1.4631   -4.7456    0.0656 H         1 <0>         0.0596
     42 H9         -0.9536   -3.5146    2.1570 H         1 <0>         0.0515
     43 H10        -2.6677   -3.6056    2.6281 H         1 <0>         0.0525
     44 H11         3.5606    3.0997   -0.0161 H         1 <0>         0.3965
     45 H12         4.9299    0.7860    0.8490 H         1 <0>         0.0632
     46 H13         4.9126    0.7950   -0.9309 H         1 <0>         0.0603
     47 H14         5.9267    3.0578   -0.9294 H         1 <0>         0.0768
     48 H15         5.9440    3.0488    0.8505 H         1 <0>         0.0861
     49 H16         7.3891    0.9956    0.7850 H         1 <0>         0.0723
     50 H17         8.4744    3.3344   -0.8627 H         1 <0>         0.0724
     51 H18         8.3992    3.2896    0.9174 H         1 <0>         0.0836
     52 H19        10.6441    2.6202   -0.0454 H         1 <0>         0.0865
     53 H20         9.8997    1.3924    1.0018 H         1 <0>         0.0818
     54 H21        12.5345   -1.4930   -3.5283 H         1 <0>         0.4100
     55 H22        13.2229   -0.5070   -2.3550 H         1 <0>         0.4245
     56 H23         6.7037    0.7649   -1.8789 H         1 <0>         0.4076
     57 H24        10.2008   -1.5458   -3.8086 H         1 <0>         0.4130
@<TRIPOS>BOND
     1    1    6 ar
     2    1    2 ar
     3    1   34 1
     4    2    3 ar
     5    2   35 1
     6    3    4 ar
     7    3   19 1
     8    4    5 ar
     9    4   36 1
    10    5    6 ar
    11    5   37 1
    12    6    7 1
    13    7    8 2
    14    7    9 am
    15    9   10 1
    16    9   38 1
    17   10   11 1
    18   10   16 1
    19   10   39 1
    20   11   12 1
    21   11   40 1
    22   11   41 1
    23   12   13 1
    24   12   42 1
    25   12   43 1
    26   13   14 2
    27   13   15 1
    28   16   17 2
    29   16   18 1
    30   19   20 1
    31   19   44 1
    32   20   21 1
    33   20   45 1
    34   20   46 1
    35   21   22 1
    36   21   47 1
    37   21   48 1
    38   22   33 1
    39   22   23 1
    40   22   49 1
    41   23   24 1
    42   23   50 1
    43   23   51 1
    44   24   25 1
    45   24   52 1
    46   24   53 1
    47   25   30 1
    48   25   26 2
    49   26   27 1
    50   26   33 1
    51   27   28 am
    52   27   32 2
    53   28   29 1
    54   28   57 1
    55   29   30 2
    56   29   31 1
    57   31   54 1
    58   31   55 1
    59   33   56 1
@<TRIPOS>MOLECULE
CHEMBL290815__1
   57    59     0     0     0
SMALL
USER_CHARGES

@<TRIPOS>ATOM
      1 C1         -0.0169    1.3937    0.0097 C.ar      1 <0>        -0.0182
      2 C2          1.1662    2.0965    0.0022 C.ar      1 <0>        -0.2060
      3 C3          2.3811    1.4169   -0.0131 C.ar      1 <0>         0.2220
      4 C4          2.4034    0.0249   -0.0208 C.ar      1 <0>        -0.2021
      5 C5          1.2237   -0.6836   -0.0138 C.ar      1 <0>        -0.0361
      6 C6          0.0021   -0.0041    0.0020 C.ar      1 <0>        -0.1658
      7 C7         -1.2644   -0.7605    0.0105 C.2       1 <0>         0.5497
      8 O1         -2.3263   -0.1682    0.0243 O.2       1 <0>        -0.5607
      9 N1         -1.2445   -2.1081    0.0031 N.am      1 <0>        -0.6792
     10 C8         -2.5022   -2.8593    0.0116 C.3       1 <0>         0.0747
     11 C9         -2.2637   -4.2464    0.6114 C.3       1 <0>        -0.0822
     12 C10        -1.8670   -4.1047    2.0823 C.3       1 <0>        -0.1771
     13 C11        -1.6321   -5.4710    2.6731 C.2       1 <0>         0.4912
     14 O2         -1.7693   -6.4659    1.9818 O.co2     1 <0>        -0.6982
     15 O3         -1.3049   -5.5815    3.8424 O.co2     1 <0>        -0.7200
     16 C12        -3.0110   -3.0030   -1.3996 C.2       1 <0>         0.4984
     17 O4         -2.2242   -3.0459   -2.3300 O.co2     1 <0>        -0.6992
     18 O5         -4.2095   -3.0763   -1.6111 O.co2     1 <0>        -0.7028
     19 N2          3.5749    2.1299   -0.0211 N.pl3     1 <0>        -0.7474
     20 C13         4.8542    1.4162   -0.0371 C.3       1 <0>         0.1226
     21 C14         6.0023    2.4276   -0.0432 C.3       1 <0>        -0.1349
     22 C15         7.3384    1.6823   -0.0600 C.3       1 <0>         0.1626
     23 C16         8.4943    2.6880   -0.1465 C.3       1 <0>        -0.1314
     24 C17         9.8135    1.9193   -0.2164 C.3       1 <0>        -0.0546
     25 C18         9.8976    0.9099    0.8979 C.2       1 <0>         0.1071
     26 C19         8.7817    0.4556    1.5353 C.2       1 <0>         0.0161
     27 C20         8.9165   -0.4979    2.5675 C.2       1 <0>         0.5333
     28 N3         10.1542   -0.9276    2.8944 N.am      1 <0>        -0.6442
     29 C21        11.2342   -0.4354    2.2277 C.2       1 <0>         0.5919
     30 N4         11.0994    0.4508    1.2663 N.2       1 <0>        -0.5608
     31 N5         12.4898   -0.8735    2.5664 N.pl3     1 <0>        -0.8323
     32 O6          7.9345   -0.9248    3.1529 O.2       1 <0>        -0.5284
     33 N6          7.5013    0.9227    1.1880 N.pl3     1 <0>        -0.7272
     34 H1         -0.9590    1.9215    0.0260 H         1 <0>         0.1329
     35 H2          1.1522    3.1764    0.0078 H         1 <0>         0.1195
     36 H3          3.3474   -0.4995   -0.0326 H         1 <0>         0.1215
     37 H4          1.2416   -1.7634   -0.0204 H         1 <0>         0.1281
     38 H5         -0.3974   -2.5806   -0.0078 H         1 <0>         0.3902
     39 H6         -3.2399   -2.3261    0.6112 H         1 <0>         0.0769
     40 H7         -3.1771   -4.8365    0.5367 H         1 <0>         0.0716
     41 H8         -1.4631   -4.7456    0.0656 H         1 <0>         0.0596
     42 H9         -0.9536   -3.5146    2.1570 H         1 <0>         0.0516
     43 H10        -2.6677   -3.6056    2.6281 H         1 <0>         0.0525
     44 H11         3.5606    3.0997   -0.0161 H         1 <0>         0.3965
     45 H12         4.9299    0.7860    0.8490 H         1 <0>         0.0605
     46 H13         4.9126    0.7950   -0.9309 H         1 <0>         0.0630
     47 H14         5.9267    3.0578   -0.9294 H         1 <0>         0.0861
     48 H15         5.9440    3.0488    0.8505 H         1 <0>         0.0769
     49 H16         7.3726    1.0041   -0.9126 H         1 <0>         0.0721
     50 H17         8.3802    3.2995   -1.0416 H         1 <0>         0.0834
     51 H18         8.4900    3.3263    0.7370 H         1 <0>         0.0725
     52 H19         9.8785    1.4033   -1.1744 H         1 <0>         0.0815
     53 H20        10.6433    2.6206   -0.1295 H         1 <0>         0.0864
     54 H21        12.6008   -1.5272    3.2743 H         1 <0>         0.4100
     55 H22        13.2663   -0.5294    2.0979 H         1 <0>         0.4244
     56 H23         6.7392    0.7466    1.7616 H         1 <0>         0.4077
     57 H24        10.2729   -1.5831    3.5995 H         1 <0>         0.4132
@<TRIPOS>BOND
     1    1    6 ar
     2    1    2 ar
     3    1   34 1
     4    2    3 ar
     5    2   35 1
     6    3    4 ar
     7    3   19 1
     8    4    5 ar
     9    4   36 1
    10    5    6 ar
    11    5   37 1
    12    6    7 1
    13    7    8 2
    14    7    9 am
    15    9   10 1
    16    9   38 1
    17   10   11 1
    18   10   16 1
    19   10   39 1
    20   11   12 1
    21   11   40 1
    22   11   41 1
    23   12   13 1
    24   12   42 1
    25   12   43 1
    26   13   14 2
    27   13   15 1
    28   16   17 2
    29   16   18 1
    30   19   20 1
    31   19   44 1
    32   20   21 1
    33   20   45 1
    34   20   46 1
    35   21   22 1
    36   21   47 1
    37   21   48 1
    38   22   33 1
    39   22   23 1
    40   22   49 1
    41   23   24 1
    42   23   50 1
    43   23   51 1
    44   24   25 1
    45   24   52 1
    46   24   53 1
    47   25   30 1
    48   25   26 2
    49   26   27 1
    50   26   33 1
    51   27   28 am
    52   27   32 2
    53   28   29 1
    54   28   57 1
    55   29   30 2
    56   29   31 1
    57   31   54 1
    58   31   55 1
    59   33   56 1
@<TRIPOS>MOLECULE
CHEMBL290815__2
   57    59     0     0     0
SMALL
USER_CHARGES

@<TRIPOS>ATOM
      1 C1         -0.0169    1.3937    0.0097 C.ar      1 <0>        -0.0185
      2 C2          1.1662    2.0965    0.0022 C.ar      1 <0>        -0.2057
      3 C3          2.3811    1.4169   -0.0131 C.ar      1 <0>         0.2209
      4 C4          2.4034    0.0249   -0.0208 C.ar      1 <0>        -0.2021
      5 C5          1.2237   -0.6836   -0.0138 C.ar      1 <0>        -0.0371
      6 C6          0.0021   -0.0041    0.0020 C.ar      1 <0>        -0.1631
      7 C7         -1.2644   -0.7605    0.0105 C.2       1 <0>         0.5565
      8 O1         -2.3263   -0.1682    0.0243 O.2       1 <0>        -0.5621
      9 N1         -1.2445   -2.1081    0.0031 N.am      1 <0>        -0.6796
     10 C8         -2.5022   -2.8593    0.0116 C.3       1 <0>         0.0736
     11 C9         -2.2758   -4.2399   -0.6078 C.3       1 <0>        -0.0802
     12 C10        -1.9084   -4.0824   -2.0846 C.3       1 <0>        -0.1777
     13 C11        -1.6854   -5.4422   -2.6946 C.2       1 <0>         0.4910
     14 O2         -1.8089   -6.4445   -2.0115 O.co2     1 <0>        -0.6977
     15 O3         -1.3815   -5.5401   -3.8713 O.co2     1 <0>        -0.7207
     16 C12        -2.9829   -3.0182    1.4310 C.2       1 <0>         0.4956
     17 O4         -2.3350   -2.5475    2.3503 O.co2     1 <0>        -0.6970
     18 O5         -4.0198   -3.6173    1.6600 O.co2     1 <0>        -0.7018
     19 N2          3.5749    2.1299   -0.0211 N.pl3     1 <0>        -0.7477
     20 C13         4.8542    1.4162   -0.0371 C.3       1 <0>         0.1229
     21 C14         6.0023    2.4276   -0.0432 C.3       1 <0>        -0.1349
     22 C15         7.3384    1.6823   -0.0600 C.3       1 <0>         0.1626
     23 C16         8.4959    2.6872    0.0142 C.3       1 <0>        -0.1314
     24 C17         9.8161    1.9179    0.0506 C.3       1 <0>        -0.0545
     25 C18         9.8784    0.9198   -1.0752 C.2       1 <0>         0.1070
     26 C19         8.7503    0.4718   -1.6954 C.2       1 <0>         0.0161
     27 C20         8.8649   -0.4712   -2.7396 C.2       1 <0>         0.5333
     28 N3         10.0959   -0.8975   -3.0948 N.am      1 <0>        -0.6441
     29 C21        11.1887   -0.4119   -2.4443 C.2       1 <0>         0.5918
     30 N4         11.0727    0.4646   -1.4716 N.2       1 <0>        -0.5608
     31 N5         12.4374   -0.8464   -2.8118 N.pl3     1 <0>        -0.8323
     32 O6          7.8715   -0.8929   -3.3094 O.2       1 <0>        -0.5284
     33 N6          7.4769    0.9354   -1.3185 N.pl3     1 <0>        -0.7271
     34 H1         -0.9590    1.9215    0.0260 H         1 <0>         0.1326
     35 H2          1.1522    3.1764    0.0078 H         1 <0>         0.1191
     36 H3          3.3474   -0.4995   -0.0326 H         1 <0>         0.1210
     37 H4          1.2416   -1.7634   -0.0204 H         1 <0>         0.1272
     38 H5         -0.3974   -2.5806   -0.0078 H         1 <0>         0.3880
     39 H6         -3.2516   -2.3197   -0.5676 H         1 <0>         0.0769
     40 H7         -1.4645   -4.7448   -0.0833 H         1 <0>         0.0543
     41 H8         -3.1876   -4.8309   -0.5212 H         1 <0>         0.0782
     42 H9         -2.7197   -3.5775   -2.6090 H         1 <0>         0.0520
     43 H10        -0.9966   -3.4914   -2.1711 H         1 <0>         0.0506
     44 H11         3.5606    3.0997   -0.0161 H         1 <0>         0.3963
     45 H12         4.9299    0.7860    0.8490 H         1 <0>         0.0627
     46 H13         4.9126    0.7950   -0.9309 H         1 <0>         0.0603
     47 H14         5.9267    3.0578   -0.9294 H         1 <0>         0.0768
     48 H15         5.9440    3.0488    0.8505 H         1 <0>         0.0860
     49 H16         7.3891    0.9956    0.7850 H         1 <0>         0.0720
     50 H17         8.4744    3.3344   -0.8627 H         1 <0>         0.0724
     51 H18         8.3992    3.2896    0.9174 H         1 <0>         0.0834
     52 H19        10.6441    2.6202   -0.0454 H         1 <0>         0.0864
     53 H20         9.8997    1.3924    1.0018 H         1 <0>         0.0815
     54 H21        12.5345   -1.4930   -3.5283 H         1 <0>         0.4100
     55 H22        13.2229   -0.5070   -2.3550 H         1 <0>         0.4244
     56 H23         6.7037    0.7649   -1.8789 H         1 <0>         0.4077
     57 H24        10.2008   -1.5458   -3.8086 H         1 <0>         0.4132
@<TRIPOS>BOND
     1    1    6 ar
     2    1    2 ar
     3    1   34 1
     4    2    3 ar
     5    2   35 1
     6    3    4 ar
     7    3   19 1
     8    4    5 ar
     9    4   36 1
    10    5    6 ar
    11    5   37 1
    12    6    7 1
    13    7    8 2
    14    7    9 am
    15    9   10 1
    16    9   38 1
    17   10   11 1
    18   10   16 1
    19   10   39 1
    20   11   12 1
    21   11   40 1
    22   11   41 1
    23   12   13 1
    24   12   42 1
    25   12   43 1
    26   13   14 2
    27   13   15 1
    28   16   17 2
    29   16   18 1
    30   19   20 1
    31   19   44 1
    32   20   21 1
    33   20   45 1
    34   20   46 1
    35   21   22 1
    36   21   47 1
    37   21   48 1
    38   22   33 1
    39   22   23 1
    40   22   49 1
    41   23   24 1
    42   23   50 1
    43   23   51 1
    44   24   25 1
    45   24   52 1
    46   24   53 1
    47   25   30 1
    48   25   26 2
    49   26   27 1
    50   26   33 1
    51   27   28 am
    52   27   32 2
    53   28   29 1
    54   28   57 1
    55   29   30 2
    56   29   31 1
    57   31   54 1
    58   31   55 1
    59   33   56 1
@<TRIPOS>MOLECULE
CHEMBL290815__3
   57    59     0     0     0
SMALL
USER_CHARGES

@<TRIPOS>ATOM
      1 C1         -0.0169    1.3937    0.0097 C.ar      1 <0>        -0.0186
      2 C2          1.1662    2.0965    0.0022 C.ar      1 <0>        -0.2057
      3 C3          2.3811    1.4169   -0.0131 C.ar      1 <0>         0.2209
      4 C4          2.4034    0.0249   -0.0208 C.ar      1 <0>        -0.2021
      5 C5          1.2237   -0.6836   -0.0138 C.ar      1 <0>        -0.0371
      6 C6          0.0021   -0.0041    0.0020 C.ar      1 <0>        -0.1631
      7 C7         -1.2644   -0.7605    0.0105 C.2       1 <0>         0.5565
      8 O1         -2.3263   -0.1682    0.0243 O.2       1 <0>        -0.5621
      9 N1         -1.2445   -2.1081    0.0031 N.am      1 <0>        -0.6796
     10 C8         -2.5022   -2.8593    0.0116 C.3       1 <0>         0.0736
     11 C9         -2.2758   -4.2399   -0.6078 C.3       1 <0>        -0.0804
     12 C10        -1.9084   -4.0824   -2.0846 C.3       1 <0>        -0.1774
     13 C11        -1.6854   -5.4422   -2.6946 C.2       1 <0>         0.4909
     14 O2         -1.8089   -6.4445   -2.0115 O.co2     1 <0>        -0.6974
     15 O3         -1.3815   -5.5401   -3.8713 O.co2     1 <0>        -0.7210
     16 C12        -2.9829   -3.0182    1.4310 C.2       1 <0>         0.4954
     17 O4         -2.3350   -2.5475    2.3503 O.co2     1 <0>        -0.6967
     18 O5         -4.0198   -3.6173    1.6600 O.co2     1 <0>        -0.7020
     19 N2          3.5749    2.1299   -0.0211 N.pl3     1 <0>        -0.7477
     20 C13         4.8542    1.4162   -0.0371 C.3       1 <0>         0.1228
     21 C14         6.0023    2.4276   -0.0432 C.3       1 <0>        -0.1349
     22 C15         7.3384    1.6823   -0.0600 C.3       1 <0>         0.1624
     23 C16         8.4943    2.6880   -0.1465 C.3       1 <0>        -0.1313
     24 C17         9.8135    1.9193   -0.2164 C.3       1 <0>        -0.0548
     25 C18         9.8976    0.9099    0.8979 C.2       1 <0>         0.1073
     26 C19         8.7817    0.4556    1.5353 C.2       1 <0>         0.0162
     27 C20         8.9165   -0.4979    2.5675 C.2       1 <0>         0.5335
     28 N3         10.1542   -0.9276    2.8944 N.am      1 <0>        -0.6441
     29 C21        11.2342   -0.4354    2.2277 C.2       1 <0>         0.5916
     30 N4         11.0994    0.4508    1.2663 N.2       1 <0>        -0.5603
     31 N5         12.4898   -0.8735    2.5664 N.pl3     1 <0>        -0.8323
     32 O6          7.9345   -0.9248    3.1529 O.2       1 <0>        -0.5294
     33 N6          7.5013    0.9227    1.1880 N.pl3     1 <0>        -0.7271
     34 H1         -0.9590    1.9215    0.0260 H         1 <0>         0.1326
     35 H2          1.1522    3.1764    0.0078 H         1 <0>         0.1191
     36 H3          3.3474   -0.4995   -0.0326 H         1 <0>         0.1210
     37 H4          1.2416   -1.7634   -0.0204 H         1 <0>         0.1272
     38 H5         -0.3974   -2.5806   -0.0078 H         1 <0>         0.3880
     39 H6         -3.2516   -2.3197   -0.5676 H         1 <0>         0.0770
     40 H7         -1.4645   -4.7448   -0.0833 H         1 <0>         0.0544
     41 H8         -3.1876   -4.8309   -0.5212 H         1 <0>         0.0782
     42 H9         -2.7197   -3.5775   -2.6090 H         1 <0>         0.0520
     43 H10        -0.9966   -3.4914   -2.1711 H         1 <0>         0.0505
     44 H11         3.5606    3.0997   -0.0161 H         1 <0>         0.3963
     45 H12         4.9299    0.7860    0.8490 H         1 <0>         0.0601
     46 H13         4.9126    0.7950   -0.9309 H         1 <0>         0.0630
     47 H14         5.9267    3.0578   -0.9294 H         1 <0>         0.0861
     48 H15         5.9440    3.0488    0.8505 H         1 <0>         0.0768
     49 H16         7.3726    1.0041   -0.9126 H         1 <0>         0.0723
     50 H17         8.3802    3.2995   -1.0416 H         1 <0>         0.0836
     51 H18         8.4900    3.3263    0.7370 H         1 <0>         0.0724
     52 H19         9.8785    1.4033   -1.1744 H         1 <0>         0.0818
     53 H20        10.6433    2.6206   -0.1295 H         1 <0>         0.0865
     54 H21        12.6008   -1.5272    3.2743 H         1 <0>         0.4099
     55 H22        13.2663   -0.5294    2.0979 H         1 <0>         0.4244
     56 H23         6.7392    0.7466    1.7616 H         1 <0>         0.4076
     57 H24        10.2729   -1.5831    3.5995 H         1 <0>         0.4130
@<TRIPOS>BOND
     1    1    6 ar
     2    1    2 ar
     3    1   34 1
     4    2    3 ar
     5    2   35 1
     6    3    4 ar
     7    3   19 1
     8    4    5 ar
     9    4   36 1
    10    5    6 ar
    11    5   37 1
    12    6    7 1
    13    7    8 2
    14    7    9 am
    15    9   10 1
    16    9   38 1
    17   10   11 1
    18   10   16 1
    19   10   39 1
    20   11   12 1
    21   11   40 1
    22   11   41 1
    23   12   13 1
    24   12   42 1
    25   12   43 1
    26   13   14 2
    27   13   15 1
    28   16   17 2
    29   16   18 1
    30   19   20 1
    31   19   44 1
    32   20   21 1
    33   20   45 1
    34   20   46 1
    35   21   22 1
    36   21   47 1
    37   21   48 1
    38   22   33 1
    39   22   23 1
    40   22   49 1
    41   23   24 1
    42   23   50 1
    43   23   51 1
    44   24   25 1
    45   24   52 1
    46   24   53 1
    47   25   30 1
    48   25   26 2
    49   26   27 1
    50   26   33 1
    51   27   28 am
    52   27   32 2
    53   28   29 1
    54   28   57 1
    55   29   30 2
    56   29   31 1
    57   31   54 1
    58   31   55 1
    59   33   56 1
@<TRIPOS>MOLECULE
CHEMBL134110
   61    64     0     0     0
SMALL
USER_CHARGES

@<TRIPOS>ATOM
      1 C1         -0.0030    1.3697    0.2442 C.ar      1 <0>        -0.0344
      2 C2          1.1831    2.0678    0.2361 C.ar      1 <0>        -0.2097
      3 C3          2.3756    1.4015   -0.0157 C.ar      1 <0>         0.2271
      4 C4          2.3863    0.0240   -0.2606 C.ar      1 <0>        -0.1671
      5 C5          1.2091   -0.6773   -0.2489 C.ar      1 <0>         0.0293
      6 C6          0.0021   -0.0041    0.0020 C.ar      1 <0>        -0.1718
      7 C7         -1.2680   -0.7544    0.0094 C.2       1 <0>         0.5489
      8 O1         -1.2587   -1.9664   -0.0890 O.2       1 <0>        -0.5538
      9 N1         -2.4386   -0.0967    0.1252 N.am      1 <0>        -0.6795
     10 C8         -3.6999   -0.8419    0.1326 C.3       1 <0>         0.0757
     11 C9         -4.8329    0.0684   -0.3457 C.3       1 <0>        -0.0823
     12 C10        -4.5971    0.4506   -1.8083 C.3       1 <0>        -0.1764
     13 C11        -5.7130    1.3471   -2.2794 C.2       1 <0>         0.4909
     14 O2         -6.6135    1.6522   -1.5161 O.co2     1 <0>        -0.6982
     15 O3         -5.7154    1.7675   -3.4239 O.co2     1 <0>        -0.7199
     16 C12        -3.9943   -1.3173    1.5320 C.2       1 <0>         0.4986
     17 O4         -3.6052   -0.6712    2.4899 O.co2     1 <0>        -0.6996
     18 O5         -4.6217   -2.3482    1.7063 O.co2     1 <0>        -0.7030
     19 C13         1.1459   -2.1632   -0.4878 C.3       1 <0>        -0.0863
     20 C14         2.4284   -2.6559   -1.1548 C.3       1 <0>        -0.1214
     21 C15         3.6234   -2.1405   -0.3440 C.3       1 <0>        -0.1172
     22 C16         3.7167   -0.6279   -0.5336 C.3       1 <0>        -0.0623
     23 N2          3.5714    2.1110   -0.0248 N.pl3     1 <0>        -0.7441
     24 C17         3.5690    3.5537    0.2302 C.3       1 <0>         0.1736
     25 C18         4.9804    4.0778    0.1640 C.ar      1 <0>        -0.1985
     26 C19         5.7559    4.1063    1.2936 C.ar      1 <0>         0.0181
     27 C20         7.0602    4.6016    1.1838 C.ar      1 <0>        -0.2907
     28 C21         7.9364    4.6700    2.2952 C.ar      1 <0>         0.5271
     29 N3          9.1560    5.1524    2.1039 N.ar      1 <0>        -0.6387
     30 C22         9.5559    5.5638    0.9041 C.ar      1 <0>         0.6312
     31 N4          8.7799    5.5220   -0.1626 N.ar      1 <0>        -0.6020
     32 C23         7.5278    5.0507   -0.0760 C.ar      1 <0>         0.4167
     33 N5          6.7241    4.9969   -1.1384 N.ar      1 <0>        -0.4865
     34 C24         5.4999    4.5277   -1.0435 C.ar      1 <0>         0.2081
     35 N6         10.8395    6.0570    0.7685 N.pl3     1 <0>        -0.8141
     36 N7          7.5312    4.2467    3.5419 N.pl3     1 <0>        -0.8137
     37 H1         -0.9329    1.8824    0.4415 H         1 <0>         0.1284
     38 H2          1.1866    3.1312    0.4248 H         1 <0>         0.1228
     39 H3         -2.4461    0.8701    0.2037 H         1 <0>         0.3895
     40 H4         -3.6183   -1.7009   -0.5334 H         1 <0>         0.0767
     41 H5         -5.7836   -0.4572   -0.2562 H         1 <0>         0.0711
     42 H6         -4.8573    0.9702    0.2661 H         1 <0>         0.0592
     43 H7         -3.6464    0.9761   -1.8978 H         1 <0>         0.0515
     44 H8         -4.5727   -0.4512   -2.4201 H         1 <0>         0.0522
     45 H9          1.0173   -2.6752    0.4658 H         1 <0>         0.0823
     46 H10         0.2964   -2.3875   -1.1328 H         1 <0>         0.1079
     47 H11         2.4385   -3.7457   -1.1712 H         1 <0>         0.0631
     48 H12         2.4832   -2.2723   -2.1737 H         1 <0>         0.0603
     49 H13         3.4773   -2.3699    0.7115 H         1 <0>         0.0639
     50 H14         4.5394   -2.6123   -0.6996 H         1 <0>         0.0583
     51 H15         4.0190   -0.4122   -1.5584 H         1 <0>         0.0652
     52 H16         4.4618   -0.2250    0.1524 H         1 <0>         0.0581
     53 H17         4.4071    1.6509   -0.2001 H         1 <0>         0.3971
     54 H18         2.9598    4.0546   -0.5221 H         1 <0>         0.0766
     55 H19         3.1557    3.7470    1.2201 H         1 <0>         0.0718
     56 H20         5.3716    3.7573    2.2407 H         1 <0>         0.1378
     57 H21         4.8796    4.4955   -1.9270 H         1 <0>         0.1703
     58 H22        11.4274    6.0974    1.5390 H         1 <0>         0.4138
     59 H23        11.1527    6.3627   -0.0971 H         1 <0>         0.4171
     60 H24         6.6356    3.8961    3.6676 H         1 <0>         0.4168
     61 H25         8.1415    4.2992    4.2940 H         1 <0>         0.4141
@<TRIPOS>BOND
     1    1    6 ar
     2    1    2 ar
     3    1   37 1
     4    2    3 ar
     5    2   38 1
     6    3    4 ar
     7    3   23 1
     8    4   22 1
     9    4    5 ar
    10    5    6 ar
    11    5   19 1
    12    6    7 1
    13    7    8 2
    14    7    9 am
    15    9   10 1
    16    9   39 1
    17   10   11 1
    18   10   16 1
    19   10   40 1
    20   11   12 1
    21   11   41 1
    22   11   42 1
    23   12   13 1
    24   12   43 1
    25   12   44 1
    26   13   14 2
    27   13   15 1
    28   16   17 2
    29   16   18 1
    30   19   20 1
    31   19   45 1
    32   19   46 1
    33   20   21 1
    34   20   47 1
    35   20   48 1
    36   21   22 1
    37   21   49 1
    38   21   50 1
    39   22   51 1
    40   22   52 1
    41   23   24 1
    42   23   53 1
    43   24   25 1
    44   24   54 1
    45   24   55 1
    46   25   34 ar
    47   25   26 ar
    48   26   27 ar
    49   26   56 1
    50   27   32 ar
    51   27   28 ar
    52   28   29 ar
    53   28   36 1
    54   29   30 ar
    55   30   31 ar
    56   30   35 1
    57   31   32 ar
    58   32   33 ar
    59   33   34 ar
    60   34   57 1
    61   35   58 1
    62   35   59 1
    63   36   60 1
    64   36   61 1
@<TRIPOS>MOLECULE
CHEMBL134110__1
   62    65     0     0     0
SMALL
USER_CHARGES

@<TRIPOS>ATOM
      1 C1         -0.0030    1.3697    0.2442 C.ar      1 <0>        -0.0366
      2 C2          1.1831    2.0678    0.2361 C.ar      1 <0>        -0.2050
      3 C3          2.3756    1.4015   -0.0157 C.ar      1 <0>         0.2143
      4 C4          2.3863    0.0240   -0.2606 C.ar      1 <0>        -0.1611
      5 C5          1.2091   -0.6773   -0.2489 C.ar      1 <0>         0.0294
      6 C6          0.0021   -0.0041    0.0020 C.ar      1 <0>        -0.1567
      7 C7         -1.2680   -0.7544    0.0094 C.2       1 <0>         0.5490
      8 O1         -1.2587   -1.9664   -0.0890 O.2       1 <0>        -0.5518
      9 N1         -2.4386   -0.0967    0.1252 N.am      1 <0>        -0.6754
     10 C8         -3.6999   -0.8419    0.1326 C.3       1 <0>         0.0738
     11 C9         -4.8329    0.0684   -0.3457 C.3       1 <0>        -0.0819
     12 C10        -4.5971    0.4506   -1.8083 C.3       1 <0>        -0.1762
     13 C11        -5.7130    1.3471   -2.2794 C.2       1 <0>         0.4900
     14 O2         -6.6135    1.6522   -1.5161 O.co2     1 <0>        -0.6962
     15 O3         -5.7154    1.7675   -3.4239 O.co2     1 <0>        -0.7197
     16 C12        -3.9943   -1.3173    1.5320 C.2       1 <0>         0.4973
     17 O4         -3.3272   -0.9094    2.4674 O.co2     1 <0>        -0.7003
     18 O5         -4.8996   -2.1100    1.7287 O.co2     1 <0>        -0.6986
     19 C13         1.1459   -2.1632   -0.4878 C.3       1 <0>        -0.0891
     20 C14         2.4284   -2.6559   -1.1548 C.3       1 <0>        -0.1222
     21 C15         3.6234   -2.1405   -0.3440 C.3       1 <0>        -0.1187
     22 C16         3.7167   -0.6279   -0.5336 C.3       1 <0>        -0.0601
     23 N2          3.5714    2.1110   -0.0248 N.pl3     1 <0>        -0.7499
     24 C17         3.5690    3.5537    0.2302 C.3       1 <0>         0.1630
     25 C18         4.9804    4.0778    0.1640 C.ar      1 <0>        -0.1505
     26 C19         5.7559    4.1063    1.2936 C.ar      1 <0>         0.0291
     27 C20         7.0602    4.6016    1.1838 C.ar      1 <0>        -0.2419
     28 C21         7.9364    4.6700    2.2952 C.ar      1 <0>         0.5712
     29 N3          9.1560    5.1524    2.1039 N.ar      1 <0>        -0.5956
     30 C22         9.5559    5.5638    0.9041 C.ar      1 <0>         0.7054
     31 N4          8.7799    5.5220   -0.1626 N.ar      1 <0>        -0.5772
     32 C23         7.5278    5.0507   -0.0760 C.ar      1 <0>         0.4006
     33 N5          6.7241    4.9969   -1.1384 N.ar      1 <0>        -0.4928
     34 C24         5.4999    4.5277   -1.0435 C.ar      1 <0>         0.2362
     35 N6         10.8395    6.0570    0.7685 N.pl3     1 <0>        -0.7840
     36 N7          7.5312    4.2467    3.5419 N.pl3     1 <0>        -0.7598
     37 H1         -0.9329    1.8824    0.4415 H         1 <0>         0.1310
     38 H2          1.1866    3.1312    0.4248 H         1 <0>         0.1220
     39 H3         -2.4461    0.8701    0.2037 H         1 <0>         0.3877
     40 H4         -3.6183   -1.7009   -0.5334 H         1 <0>         0.0785
     41 H5         -5.7836   -0.4572   -0.2562 H         1 <0>         0.0775
     42 H6         -4.8573    0.9702    0.2661 H         1 <0>         0.0557
     43 H7         -3.6464    0.9761   -1.8978 H         1 <0>         0.0490
     44 H8         -4.5727   -0.4512   -2.4201 H         1 <0>         0.0526
     45 H9          1.0173   -2.6752    0.4658 H         1 <0>         0.0854
     46 H10         0.2964   -2.3875   -1.1328 H         1 <0>         0.1105
     47 H11         2.4385   -3.7457   -1.1712 H         1 <0>         0.0661
     48 H12         2.4832   -2.2723   -2.1737 H         1 <0>         0.0606
     49 H13         3.4773   -2.3699    0.7115 H         1 <0>         0.0653
     50 H14         4.5394   -2.6123   -0.6996 H         1 <0>         0.0592
     51 H15         4.0190   -0.4122   -1.5584 H         1 <0>         0.0646
     52 H16         4.4618   -0.2250    0.1524 H         1 <0>         0.0548
     53 H17         4.4071    1.6509   -0.2001 H         1 <0>         0.3963
     54 H18         2.9598    4.0546   -0.5221 H         1 <0>         0.0880
     55 H19         3.1557    3.7470    1.2201 H         1 <0>         0.0840
     56 H20         5.3716    3.7573    2.2407 H         1 <0>         0.1660
     57 H21         4.8796    4.4955   -1.9270 H         1 <0>         0.1972
     58 H22        11.4274    6.0974    1.5390 H         1 <0>         0.4457
     59 H23        11.1527    6.3627   -0.0971 H         1 <0>         0.4320
     60 H24         6.6356    3.8961    3.6676 H         1 <0>         0.4344
     61 H25         8.1415    4.2992    4.2940 H         1 <0>         0.4342
     62 H26         9.1182    5.8348   -1.0162 H         1 <0>         0.4441
@<TRIPOS>BOND
     1    1    6 ar
     2    1    2 ar
     3    1   37 1
     4    2    3 ar
     5    2   38 1
     6    3    4 ar
     7    3   23 1
     8    4   22 1
     9    4    5 ar
    10    5    6 ar
    11    5   19 1
    12    6    7 1
    13    7    8 2
    14    7    9 am
    15    9   10 1
    16    9   39 1
    17   10   11 1
    18   10   16 1
    19   10   40 1
    20   11   12 1
    21   11   41 1
    22   11   42 1
    23   12   13 1
    24   12   43 1
    25   12   44 1
    26   13   14 2
    27   13   15 1
    28   16   17 2
    29   16   18 1
    30   19   20 1
    31   19   45 1
    32   19   46 1
    33   20   21 1
    34   20   47 1
    35   20   48 1
    36   21   22 1
    37   21   49 1
    38   21   50 1
    39   22   51 1
    40   22   52 1
    41   23   24 1
    42   23   53 1
    43   24   25 1
    44   24   54 1
    45   24   55 1
    46   25   34 ar
    47   25   26 ar
    48   26   27 ar
    49   26   56 1
    50   27   32 ar
    51   27   28 ar
    52   28   29 ar
    53   28   36 1
    54   29   30 ar
    55   30   31 ar
    56   30   35 1
    57   31   32 ar
    58   31   62 1
    59   32   33 ar
    60   33   34 ar
    61   34   57 1
    62   35   58 1
    63   35   59 1
    64   36   60 1
    65   36   61 1
@<TRIPOS>MOLECULE
CHEMBL134110__2
   61    64     0     0     0
SMALL
USER_CHARGES

@<TRIPOS>ATOM
      1 C1         -0.0030    1.3697    0.2442 C.ar      1 <0>        -0.0368
      2 C2          1.1831    2.0678    0.2361 C.ar      1 <0>        -0.2097
      3 C3          2.3756    1.4015   -0.0157 C.ar      1 <0>         0.2259
      4 C4          2.3863    0.0240   -0.2606 C.ar      1 <0>        -0.1667
      5 C5          1.2091   -0.6773   -0.2489 C.ar      1 <0>         0.0297
      6 C6          0.0021   -0.0041    0.0020 C.ar      1 <0>        -0.1688
      7 C7         -1.2680   -0.7544    0.0094 C.2       1 <0>         0.5556
      8 O1         -1.2587   -1.9664   -0.0890 O.2       1 <0>        -0.5552
      9 N1         -2.4386   -0.0967    0.1252 N.am      1 <0>        -0.6798
     10 C8         -3.6999   -0.8419    0.1326 C.3       1 <0>         0.0745
     11 C9         -4.7679   -0.0297    0.8679 C.3       1 <0>        -0.0804
     12 C10        -4.3750    0.1155    2.3394 C.3       1 <0>        -0.1769
     13 C11        -5.4269    0.9156    3.0637 C.2       1 <0>         0.4907
     14 O2         -6.4006    1.3311    2.4589 O.co2     1 <0>        -0.6972
     15 O3         -5.3042    1.1473    4.2543 O.co2     1 <0>        -0.7210
     16 C12        -4.1452   -1.0898   -1.2856 C.2       1 <0>         0.4955
     17 O4         -3.4715   -0.6818   -2.2162 O.co2     1 <0>        -0.6966
     18 O5         -5.1793   -1.6983   -1.5024 O.co2     1 <0>        -0.7022
     19 C13         1.1459   -2.1632   -0.4878 C.3       1 <0>        -0.0865
     20 C14         2.4284   -2.6559   -1.1548 C.3       1 <0>        -0.1218
     21 C15         3.6234   -2.1405   -0.3440 C.3       1 <0>        -0.1165
     22 C16         3.7167   -0.6279   -0.5336 C.3       1 <0>        -0.0624
     23 N2          3.5714    2.1110   -0.0248 N.pl3     1 <0>        -0.7445
     24 C17         3.5690    3.5537    0.2302 C.3       1 <0>         0.1738
     25 C18         4.9804    4.0778    0.1640 C.ar      1 <0>        -0.1984
     26 C19         5.7559    4.1063    1.2936 C.ar      1 <0>         0.0182
     27 C20         7.0602    4.6016    1.1838 C.ar      1 <0>        -0.2906
     28 C21         7.9364    4.6700    2.2952 C.ar      1 <0>         0.5272
     29 N3          9.1560    5.1524    2.1039 N.ar      1 <0>        -0.6388
     30 C22         9.5559    5.5638    0.9041 C.ar      1 <0>         0.6312
     31 N4          8.7799    5.5220   -0.1626 N.ar      1 <0>        -0.6021
     32 C23         7.5278    5.0507   -0.0760 C.ar      1 <0>         0.4166
     33 N5          6.7241    4.9969   -1.1384 N.ar      1 <0>        -0.4867
     34 C24         5.4999    4.5277   -1.0435 C.ar      1 <0>         0.2080
     35 N6         10.8395    6.0570    0.7685 N.pl3     1 <0>        -0.8142
     36 N7          7.5312    4.2467    3.5419 N.pl3     1 <0>        -0.8136
     37 H1         -0.9329    1.8824    0.4415 H         1 <0>         0.1270
     38 H2          1.1866    3.1312    0.4248 H         1 <0>         0.1223
     39 H3         -2.4461    0.8701    0.2037 H         1 <0>         0.3873
     40 H4         -3.5555   -1.7957    0.6400 H         1 <0>         0.0767
     41 H5         -4.8494    0.9582    0.4144 H         1 <0>         0.0541
     42 H6         -5.7272   -0.5423    0.7969 H         1 <0>         0.0778
     43 H7         -4.2935   -0.8723    2.7929 H         1 <0>         0.0516
     44 H8         -3.4157    0.6282    2.4105 H         1 <0>         0.0500
     45 H9          1.0173   -2.6752    0.4658 H         1 <0>         0.0802
     46 H10         0.2964   -2.3875   -1.1328 H         1 <0>         0.1109
     47 H11         2.4385   -3.7457   -1.1712 H         1 <0>         0.0628
     48 H12         2.4832   -2.2723   -2.1737 H         1 <0>         0.0609
     49 H13         3.4773   -2.3699    0.7115 H         1 <0>         0.0633
     50 H14         4.5394   -2.6123   -0.6996 H         1 <0>         0.0579
     51 H15         4.0190   -0.4122   -1.5584 H         1 <0>         0.0651
     52 H16         4.4618   -0.2250    0.1524 H         1 <0>         0.0578
     53 H17         4.4071    1.6509   -0.2001 H         1 <0>         0.3970
     54 H18         2.9598    4.0546   -0.5221 H         1 <0>         0.0761
     55 H19         3.1557    3.7470    1.2201 H         1 <0>         0.0718
     56 H20         5.3716    3.7573    2.2407 H         1 <0>         0.1379
     57 H21         4.8796    4.4955   -1.9270 H         1 <0>         0.1701
     58 H22        11.4274    6.0974    1.5390 H         1 <0>         0.4138
     59 H23        11.1527    6.3627   -0.0971 H         1 <0>         0.4171
     60 H24         6.6356    3.8961    3.6676 H         1 <0>         0.4169
     61 H25         8.1415    4.2992    4.2940 H         1 <0>         0.4142
@<TRIPOS>BOND
     1    1    6 ar
     2    1    2 ar
     3    1   37 1
     4    2    3 ar
     5    2   38 1
     6    3    4 ar
     7    3   23 1
     8    4   22 1
     9    4    5 ar
    10    5    6 ar
    11    5   19 1
    12    6    7 1
    13    7    8 2
    14    7    9 am
    15    9   10 1
    16    9   39 1
    17   10   11 1
    18   10   16 1
    19   10   40 1
    20   11   12 1
    21   11   41 1
    22   11   42 1
    23   12   13 1
    24   12   43 1
    25   12   44 1
    26   13   14 2
    27   13   15 1
    28   16   17 2
    29   16   18 1
    30   19   20 1
    31   19   45 1
    32   19   46 1
    33   20   21 1
    34   20   47 1
    35   20   48 1
    36   21   22 1
    37   21   49 1
    38   21   50 1
    39   22   51 1
    40   22   52 1
    41   23   24 1
    42   23   53 1
    43   24   25 1
    44   24   54 1
    45   24   55 1
    46   25   34 ar
    47   25   26 ar
    48   26   27 ar
    49   26   56 1
    50   27   32 ar
    51   27   28 ar
    52   28   29 ar
    53   28   36 1
    54   29   30 ar
    55   30   31 ar
    56   30   35 1
    57   31   32 ar
    58   32   33 ar
    59   33   34 ar
    60   34   57 1
    61   35   58 1
    62   35   59 1
    63   36   60 1
    64   36   61 1
@<TRIPOS>MOLECULE
CHEMBL134110__3
   62    65     0     0     0
SMALL
USER_CHARGES

@<TRIPOS>ATOM
      1 C1         -0.0030    1.3697    0.2442 C.ar      1 <0>        -0.0373
      2 C2          1.1831    2.0678    0.2361 C.ar      1 <0>        -0.2048
      3 C3          2.3756    1.4015   -0.0157 C.ar      1 <0>         0.2149
      4 C4          2.3863    0.0240   -0.2606 C.ar      1 <0>        -0.1609
      5 C5          1.2091   -0.6773   -0.2489 C.ar      1 <0>         0.0302
      6 C6          0.0021   -0.0041    0.0020 C.ar      1 <0>        -0.1581
      7 C7         -1.2680   -0.7544    0.0094 C.2       1 <0>         0.5440
      8 O1         -1.2587   -1.9664   -0.0890 O.2       1 <0>        -0.5496
      9 N1         -2.4386   -0.0967    0.1252 N.am      1 <0>        -0.6760
     10 C8         -3.6999   -0.8419    0.1326 C.3       1 <0>         0.0746
     11 C9         -4.7679   -0.0297    0.8679 C.3       1 <0>        -0.0833
     12 C10        -4.3750    0.1155    2.3394 C.3       1 <0>        -0.1757
     13 C11        -5.4269    0.9156    3.0637 C.2       1 <0>         0.4901
     14 O2         -6.4006    1.3311    2.4589 O.co2     1 <0>        -0.6959
     15 O3         -5.3042    1.1473    4.2543 O.co2     1 <0>        -0.7199
     16 C12        -4.1452   -1.0898   -1.2856 C.2       1 <0>         0.4981
     17 O4         -4.7963   -2.0847   -1.5550 O.co2     1 <0>        -0.6990
     18 O5         -3.8544   -0.2953   -2.1636 O.co2     1 <0>        -0.7001
     19 C13         1.1459   -2.1632   -0.4878 C.3       1 <0>        -0.0898
     20 C14         2.4284   -2.6559   -1.1548 C.3       1 <0>        -0.1227
     21 C15         3.6234   -2.1405   -0.3440 C.3       1 <0>        -0.1180
     22 C16         3.7167   -0.6279   -0.5336 C.3       1 <0>        -0.0605
     23 N2          3.5714    2.1110   -0.0248 N.pl3     1 <0>        -0.7498
     24 C17         3.5690    3.5537    0.2302 C.3       1 <0>         0.1629
     25 C18         4.9804    4.0778    0.1640 C.ar      1 <0>        -0.1507
     26 C19         5.7559    4.1063    1.2936 C.ar      1 <0>         0.0293
     27 C20         7.0602    4.6016    1.1838 C.ar      1 <0>        -0.2418
     28 C21         7.9364    4.6700    2.2952 C.ar      1 <0>         0.5712
     29 N3          9.1560    5.1524    2.1039 N.ar      1 <0>        -0.5955
     30 C22         9.5559    5.5638    0.9041 C.ar      1 <0>         0.7054
     31 N4          8.7799    5.5220   -0.1626 N.ar      1 <0>        -0.5772
     32 C23         7.5278    5.0507   -0.0760 C.ar      1 <0>         0.4006
     33 N5          6.7241    4.9969   -1.1384 N.ar      1 <0>        -0.4929
     34 C24         5.4999    4.5277   -1.0435 C.ar      1 <0>         0.2361
     35 N6         10.8395    6.0570    0.7685 N.pl3     1 <0>        -0.7840
     36 N7          7.5312    4.2467    3.5419 N.pl3     1 <0>        -0.7597
     37 H1         -0.9329    1.8824    0.4415 H         1 <0>         0.1312
     38 H2          1.1866    3.1312    0.4248 H         1 <0>         0.1224
     39 H3         -2.4461    0.8701    0.2037 H         1 <0>         0.3891
     40 H4         -3.5555   -1.7957    0.6400 H         1 <0>         0.0781
     41 H5         -4.8494    0.9582    0.4144 H         1 <0>         0.0597
     42 H6         -5.7272   -0.5423    0.7969 H         1 <0>         0.0732
     43 H7         -4.2935   -0.8723    2.7929 H         1 <0>         0.0526
     44 H8         -3.4157    0.6282    2.4105 H         1 <0>         0.0491
     45 H9          1.0173   -2.6752    0.4658 H         1 <0>         0.0840
     46 H10         0.2964   -2.3875   -1.1328 H         1 <0>         0.1125
     47 H11         2.4385   -3.7457   -1.1712 H         1 <0>         0.0665
     48 H12         2.4832   -2.2723   -2.1737 H         1 <0>         0.0613
     49 H13         3.4773   -2.3699    0.7115 H         1 <0>         0.0648
     50 H14         4.5394   -2.6123   -0.6996 H         1 <0>         0.0593
     51 H15         4.0190   -0.4122   -1.5584 H         1 <0>         0.0649
     52 H16         4.4618   -0.2250    0.1524 H         1 <0>         0.0549
     53 H17         4.4071    1.6509   -0.2001 H         1 <0>         0.3964
     54 H18         2.9598    4.0546   -0.5221 H         1 <0>         0.0879
     55 H19         3.1557    3.7470    1.2201 H         1 <0>         0.0843
     56 H20         5.3716    3.7573    2.2407 H         1 <0>         0.1660
     57 H21         4.8796    4.4955   -1.9270 H         1 <0>         0.1971
     58 H22        11.4274    6.0974    1.5390 H         1 <0>         0.4457
     59 H23        11.1527    6.3627   -0.0971 H         1 <0>         0.4319
     60 H24         6.6356    3.8961    3.6676 H         1 <0>         0.4345
     61 H25         8.1415    4.2992    4.2940 H         1 <0>         0.4343
     62 H26         9.1182    5.8348   -1.0162 H         1 <0>         0.4441
@<TRIPOS>BOND
     1    1    6 ar
     2    1    2 ar
     3    1   37 1
     4    2    3 ar
     5    2   38 1
     6    3    4 ar
     7    3   23 1
     8    4   22 1
     9    4    5 ar
    10    5    6 ar
    11    5   19 1
    12    6    7 1
    13    7    8 2
    14    7    9 am
    15    9   10 1
    16    9   39 1
    17   10   11 1
    18   10   16 1
    19   10   40 1
    20   11   12 1
    21   11   41 1
    22   11   42 1
    23   12   13 1
    24   12   43 1
    25   12   44 1
    26   13   14 2
    27   13   15 1
    28   16   17 2
    29   16   18 1
    30   19   20 1
    31   19   45 1
    32   19   46 1
    33   20   21 1
    34   20   47 1
    35   20   48 1
    36   21   22 1
    37   21   49 1
    38   21   50 1
    39   22   51 1
    40   22   52 1
    41   23   24 1
    42   23   53 1
    43   24   25 1
    44   24   54 1
    45   24   55 1
    46   25   34 ar
    47   25   26 ar
    48   26   27 ar
    49   26   56 1
    50   27   32 ar
    51   27   28 ar
    52   28   29 ar
    53   28   36 1
    54   29   30 ar
    55   30   31 ar
    56   30   35 1
    57   31   32 ar
    58   31   62 1
    59   32   33 ar
    60   33   34 ar
    61   34   57 1
    62   35   58 1
    63   35   59 1
    64   36   60 1
    65   36   61 1
@<TRIPOS>MOLECULE
CHEMBL313680
   66    69     0     0     0
SMALL
USER_CHARGES

@<TRIPOS>ATOM
      1 C1          5.6982    0.6968    5.1780 C.3       1 <0>        -0.1535
      2 C2          4.9790   -0.6442    5.0187 C.3       1 <0>        -0.1054
      3 C3          3.5677   -0.4045    4.5478 C.ar      1 <0>         0.2595
      4 C4          3.3012   -0.1900    3.1973 C.ar      1 <0>        -0.1931
      5 C5          1.9666    0.0286    2.8084 C.ar      1 <0>         0.5441
      6 N1          1.0183    0.0221    3.7380 N.ar      1 <0>        -0.5666
      7 C6          1.3194   -0.1862    5.0110 C.ar      1 <0>         0.6680
      8 N2          2.5647   -0.4004    5.4109 N.ar      1 <0>        -0.5680
      9 N3          0.3034   -0.1855    5.9500 N.pl3     1 <0>        -0.7891
     10 N4          1.6480    0.2470    1.4799 N.pl3     1 <0>        -0.7767
     11 C7          4.3951   -0.1916    2.1962 C.ar      1 <0>        -0.0479
     12 C8          4.8247    1.0084    1.6290 C.ar      1 <0>        -0.0993
     13 C9          5.8433    1.0099    0.6970 C.ar      1 <0>        -0.0841
     14 C10         6.4440   -0.1761    0.3197 C.ar      1 <0>        -0.0225
     15 C11         6.0225   -1.3840    0.8806 C.ar      1 <0>         0.0868
     16 C12         4.9984   -1.3893    1.8254 C.ar      1 <0>        -0.1142
     17 N5          6.6186   -2.5617    0.5057 N.2       1 <0>        -0.2939
     18 N6          5.9213   -3.6449    0.4388 N.2       1 <0>         0.1382
     19 N7          4.6004   -3.6001   -0.0259 N.pl3     1 <0>        -0.4928
     20 C13         4.0580   -2.3537   -0.5723 C.3       1 <0>         0.0660
     21 C14         4.9108   -1.9039   -1.7602 C.3       1 <0>         0.0289
     22 O1          4.9261   -2.9324   -2.7522 O.3       1 <0>        -0.3456
     23 C15         5.7131   -2.7359   -3.8217 C.2       1 <0>         0.4582
     24 O2          6.4370   -1.7698   -3.8697 O.2       1 <0>        -0.5000
     25 C16         5.6937   -3.7204   -4.9625 C.3       1 <0>        -0.1470
     26 C17         3.7615   -4.7996    0.0345 C.3       1 <0>         0.1697
     27 C18         2.9383   -4.7738    1.2966 C.ar      1 <0>        -0.1084
     28 C19         3.4487   -5.3450    2.4609 C.ar      1 <0>        -0.0986
     29 C20         2.7311   -5.3390    3.6173 C.ar      1 <0>        -0.1066
     30 C21         1.4561   -4.7484    3.6413 C.ar      1 <0>        -0.0492
     31 C22         0.6857   -4.7224    4.8164 C.ar      1 <0>        -0.1120
     32 C23        -0.5449   -4.1413    4.8022 C.ar      1 <0>        -0.1140
     33 C24        -1.0552   -3.5699    3.6379 C.ar      1 <0>        -0.1131
     34 C25        -0.3377   -3.5763    2.4815 C.ar      1 <0>        -0.1036
     35 C26         0.9372   -4.1673    2.4574 C.ar      1 <0>        -0.0538
     36 C27         1.7098   -4.1882    1.2837 C.ar      1 <0>        -0.0904
     37 Cl1         7.7237   -0.1649   -0.8533 Cl        1 <0>        -0.0120
     38 H1          5.7963    1.1746    4.2032 H         1 <0>         0.0737
     39 H2          5.1223    1.3413    5.8422 H         1 <0>         0.0635
     40 H3          6.6883    0.5300    5.6021 H         1 <0>         0.0894
     41 H4          5.5074   -1.2551    4.2868 H         1 <0>         0.1202
     42 H5          4.9591   -1.1620    5.9776 H         1 <0>         0.1036
     43 H6         -0.6135   -0.0339    5.6724 H         1 <0>         0.4452
     44 H7          0.5081   -0.3367    6.8861 H         1 <0>         0.4302
     45 H8          2.3531    0.3224    0.8181 H         1 <0>         0.4287
     46 H9          0.7194    0.3249    1.2104 H         1 <0>         0.4288
     47 H10         4.3589    1.9385    1.9195 H         1 <0>         0.1425
     48 H11         6.1718    1.9417    0.2608 H         1 <0>         0.1534
     49 H12         4.6714   -2.3199    2.2653 H         1 <0>         0.1377
     50 H13         3.0323   -2.5178   -0.9028 H         1 <0>         0.1054
     51 H14         4.0725   -1.5826    0.1980 H         1 <0>         0.1012
     52 H15         4.4886   -0.9940   -2.1868 H         1 <0>         0.0807
     53 H16         5.9289   -1.7088   -1.4234 H         1 <0>         0.0903
     54 H17         4.9399   -3.4190   -5.6898 H         1 <0>         0.1069
     55 H18         6.6727   -3.7411   -5.4412 H         1 <0>         0.1062
     56 H19         5.4545   -4.7133   -4.5816 H         1 <0>         0.0947
     57 H20         3.0992   -4.8238   -0.8308 H         1 <0>         0.1034
     58 H21         4.3950   -5.6866    0.0321 H         1 <0>         0.1080
     59 H22         4.4283   -5.7995    2.4452 H         1 <0>         0.1293
     60 H23         3.1392   -5.7860    4.5117 H         1 <0>         0.1295
     61 H24         1.0681   -5.1616    5.7260 H         1 <0>         0.1271
     62 H25        -1.1350   -4.1231    5.7065 H         1 <0>         0.1242
     63 H26        -2.0348   -3.1154    3.6536 H         1 <0>         0.1249
     64 H27        -0.7461   -3.1300    1.5868 H         1 <0>         0.1258
     65 H28         1.3291   -3.7454    0.3752 H         1 <0>         0.1257
     66 H29         2.7442   -0.5531    6.3519 H         1 <0>         0.4415
@<TRIPOS>BOND
     1    1    2 1
     2    1   38 1
     3    1   39 1
     4    1   40 1
     5    2    3 1
     6    2   41 1
     7    2   42 1
     8    3    8 ar
     9    3    4 ar
    10    4    5 ar
    11    4   11 1
    12    5    6 ar
    13    5   10 1
    14    6    7 ar
    15    7    8 ar
    16    7    9 1
    17    8   66 1
    18    9   43 1
    19    9   44 1
    20   10   45 1
    21   10   46 1
    22   11   16 ar
    23   11   12 ar
    24   12   13 ar
    25   12   47 1
    26   13   14 ar
    27   13   48 1
    28   14   15 ar
    29   14   37 1
    30   15   16 ar
    31   15   17 1
    32   16   49 1
    33   17   18 2
    34   18   19 1
    35   19   20 1
    36   19   26 1
    37   20   21 1
    38   20   50 1
    39   20   51 1
    40   21   22 1
    41   21   52 1
    42   21   53 1
    43   22   23 1
    44   23   24 2
    45   23   25 1
    46   25   54 1
    47   25   55 1
    48   25   56 1
    49   26   27 1
    50   26   57 1
    51   26   58 1
    52   27   36 ar
    53   27   28 ar
    54   28   29 ar
    55   28   59 1
    56   29   30 ar
    57   29   60 1
    58   30   35 ar
    59   30   31 ar
    60   31   32 ar
    61   31   61 1
    62   32   33 ar
    63   32   62 1
    64   33   34 ar
    65   33   63 1
    66   34   35 ar
    67   34   64 1
    68   35   36 ar
    69   36   65 1
@<TRIPOS>MOLECULE
CHEMBL313680__1
   65    68     0     0     0
SMALL
USER_CHARGES

@<TRIPOS>ATOM
      1 C1         -2.2803    5.6655   -1.0026 C.3       1 <0>        -0.1385
      2 C2         -2.3060    4.7168    0.1975 C.3       1 <0>        -0.0774
      3 C3         -0.9754    4.0191    0.3150 C.ar      1 <0>         0.2729
      4 C4         -0.7516    2.8113   -0.3421 C.ar      1 <0>        -0.2880
      5 C5          0.5079    2.1999   -0.2012 C.ar      1 <0>         0.5016
      6 N1          1.4292    2.7942    0.5483 N.ar      1 <0>        -0.6207
      7 C6          1.1708    3.9432    1.1546 C.ar      1 <0>         0.6179
      8 N2         -0.0027    4.5485    1.0391 N.ar      1 <0>        -0.5993
      9 N3          2.1565    4.5314    1.9269 N.pl3     1 <0>        -0.8177
     10 N4          0.7818    0.9996   -0.8324 N.pl3     1 <0>        -0.8347
     11 C7         -1.8128    2.1861   -1.1680 C.ar      1 <0>         0.0045
     12 C8         -2.6662    1.2362   -0.6064 C.ar      1 <0>        -0.1020
     13 C9         -3.6556    0.6528   -1.3729 C.ar      1 <0>        -0.0933
     14 C10        -3.8071    1.0056   -2.7004 C.ar      1 <0>        -0.0265
     15 C11        -2.9586    1.9556   -3.2739 C.ar      1 <0>         0.0700
     16 C12        -1.9624    2.5505   -2.5025 C.ar      1 <0>        -0.1264
     17 N5         -3.1088    2.3055   -4.5922 N.2       1 <0>        -0.2852
     18 N6         -2.1138    2.8038   -5.2447 N.2       1 <0>         0.1228
     19 N7         -0.8126    2.3501   -4.9918 N.pl3     1 <0>        -0.5054
     20 C13        -0.5974    1.1874   -4.1269 C.3       1 <0>         0.0643
     21 C14        -0.1492   -0.0038   -4.9760 C.3       1 <0>         0.0550
     22 O1          1.0731    0.3191   -5.6422 O.3       1 <0>        -0.3505
     23 C15         1.5516   -0.5862   -6.5101 C.2       1 <0>         0.4576
     24 O2          0.9077   -1.5756   -6.7675 O.2       1 <0>        -0.5064
     25 C16         2.8920   -0.3684   -7.1636 C.3       1 <0>        -0.1484
     26 C17         0.3327    3.0384   -5.5923 C.3       1 <0>         0.1681
     27 C18         0.8807    4.0474   -4.6162 C.ar      1 <0>        -0.1149
     28 C19         0.3817    5.3487   -4.6214 C.ar      1 <0>        -0.1028
     29 C20         0.8549    6.2841   -3.7535 C.ar      1 <0>        -0.1040
     30 C21         1.8615    5.9359   -2.8366 C.ar      1 <0>        -0.0428
     31 C22         2.3746    6.8742   -1.9248 C.ar      1 <0>        -0.1084
     32 C23         3.3490    6.5009   -1.0512 C.ar      1 <0>        -0.1075
     33 C24         3.8478    5.1994   -1.0458 C.ar      1 <0>        -0.1090
     34 C25         3.3749    4.2642   -1.9140 C.ar      1 <0>        -0.0930
     35 C26         2.3686    4.6126   -2.8311 C.ar      1 <0>        -0.0496
     36 C27         1.8515    3.6727   -3.7390 C.ar      1 <0>        -0.0822
     37 Cl1        -5.0533    0.2667   -3.6568 Cl        1 <0>        -0.0427
     38 H1         -1.4928    6.4061   -0.8635 H         1 <0>         0.0588
     39 H2         -2.0871    5.0961   -1.9117 H         1 <0>         0.0524
     40 H3         -3.2427    6.1701   -1.0875 H         1 <0>         0.0645
     41 H4         -2.4992    5.2862    1.1067 H         1 <0>         0.0865
     42 H5         -3.0936    3.9762    0.0585 H         1 <0>         0.0826
     43 H6          3.0216    4.1024    2.0182 H         1 <0>         0.4118
     44 H7          1.9824    5.3727    2.3771 H         1 <0>         0.4142
     45 H8          0.0917    0.5547   -1.3489 H         1 <0>         0.4068
     46 H9          1.6639    0.6029   -0.7584 H         1 <0>         0.4072
     47 H10        -2.5526    0.9561    0.4304 H         1 <0>         0.1360
     48 H11        -4.3133   -0.0823   -0.9332 H         1 <0>         0.1433
     49 H12        -1.3063    3.2885   -2.9397 H         1 <0>         0.1380
     50 H13         0.1727    1.4195   -3.3913 H         1 <0>         0.0908
     51 H14        -1.5266    0.9390   -3.6142 H         1 <0>         0.1224
     52 H15         0.0053   -0.8705   -4.3332 H         1 <0>         0.0815
     53 H16        -0.9167   -0.2321   -5.7155 H         1 <0>         0.0773
     54 H17         3.6730   -0.8149   -6.5482 H         1 <0>         0.1063
     55 H18         2.8955   -0.8337   -8.1493 H         1 <0>         0.1045
     56 H19         3.0768    0.7009   -7.2659 H         1 <0>         0.0949
     57 H20         1.1070    2.3109   -5.8359 H         1 <0>         0.1124
     58 H21         0.0144    3.5484   -6.5015 H         1 <0>         0.0976
     59 H22        -0.3919    5.6190   -5.3249 H         1 <0>         0.1233
     60 H23         0.4592    7.2889   -3.7695 H         1 <0>         0.1254
     61 H24         1.9980    7.8864   -1.9178 H         1 <0>         0.1232
     62 H25         3.7419    7.2240   -0.3518 H         1 <0>         0.1194
     63 H26         4.6214    4.9292   -0.3423 H         1 <0>         0.1181
     64 H27         3.7712    3.2596   -1.8986 H         1 <0>         0.1204
     65 H28         2.2253    2.6595   -3.7433 H         1 <0>         0.1230
@<TRIPOS>BOND
     1    1    2 1
     2    1   38 1
     3    1   39 1
     4    1   40 1
     5    2    3 1
     6    2   41 1
     7    2   42 1
     8    3    8 ar
     9    3    4 ar
    10    4    5 ar
    11    4   11 1
    12    5    6 ar
    13    5   10 1
    14    6    7 ar
    15    7    8 ar
    16    7    9 1
    17    9   43 1
    18    9   44 1
    19   10   45 1
    20   10   46 1
    21   11   16 ar
    22   11   12 ar
    23   12   13 ar
    24   12   47 1
    25   13   14 ar
    26   13   48 1
    27   14   15 ar
    28   14   37 1
    29   15   16 ar
    30   15   17 1
    31   16   49 1
    32   17   18 2
    33   18   19 1
    34   19   20 1
    35   19   26 1
    36   20   21 1
    37   20   50 1
    38   20   51 1
    39   21   22 1
    40   21   52 1
    41   21   53 1
    42   22   23 1
    43   23   24 2
    44   23   25 1
    45   25   54 1
    46   25   55 1
    47   25   56 1
    48   26   27 1
    49   26   57 1
    50   26   58 1
    51   27   36 ar
    52   27   28 ar
    53   28   29 ar
    54   28   59 1
    55   29   30 ar
    56   29   60 1
    57   30   35 ar
    58   30   31 ar
    59   31   32 ar
    60   31   61 1
    61   32   33 ar
    62   32   62 1
    63   33   34 ar
    64   33   63 1
    65   34   35 ar
    66   34   64 1
    67   35   36 ar
    68   36   65 1
@<TRIPOS>MOLECULE
CHEMBL313680__2
   66    69     0     0     0
SMALL
USER_CHARGES

@<TRIPOS>ATOM
      1 C1         -0.1707   -1.6905    0.8833 C.3       1 <0>        -0.1539
      2 C2         -0.0179   -0.3855    0.0992 C.3       1 <0>        -0.1059
      3 C3          0.8044   -0.6365   -1.1385 C.ar      1 <0>         0.2541
      4 C4          2.1958   -0.5984   -1.0811 C.ar      1 <0>        -0.1886
      5 C5          2.9181   -0.8400   -2.2643 C.ar      1 <0>         0.5407
      6 N1          2.2496   -1.0935   -3.3835 N.ar      1 <0>        -0.5742
      7 C6          0.9252   -1.1194   -3.3900 C.ar      1 <0>         0.6661
      8 N2          0.2143   -0.9014   -2.2929 N.ar      1 <0>        -0.5689
      9 N3          0.2648   -1.3872   -4.5758 N.pl3     1 <0>        -0.7908
     10 N4          4.3013   -0.8135   -2.2618 N.pl3     1 <0>        -0.7720
     11 C7          2.8972   -0.3103    0.1933 C.ar      1 <0>        -0.0554
     12 C8          2.8209    0.9619    0.7605 C.ar      1 <0>        -0.0876
     13 C9          3.4726    1.2329    1.9472 C.ar      1 <0>        -0.0920
     14 C10         4.2044    0.2466    2.5809 C.ar      1 <0>         0.0086
     15 C11         4.2881   -1.0312    2.0227 C.ar      1 <0>         0.1304
     16 C12         3.6276   -1.3102    0.8280 C.ar      1 <0>        -0.1127
     17 N5          5.0151   -2.0104    2.6517 N.2       1 <0>        -0.3384
     18 N6          5.0913   -3.1898    2.1347 N.2       1 <0>         0.0584
     19 N7          5.8335   -4.1896    2.7769 N.pl3     1 <0>        -0.4574
     20 C13         6.5231   -3.8956    4.0356 C.3       1 <0>         0.0971
     21 C14         5.6359   -4.3087    5.2117 C.3       1 <0>         0.0520
     22 O1          5.4589   -5.7266    5.1998 O.3       1 <0>        -0.3552
     23 C15         4.7003   -6.2542    6.1734 C.2       1 <0>         0.4588
     24 O2          4.2029   -5.5359    7.0080 O.2       1 <0>        -0.5078
     25 C16         4.4688   -7.7424    6.2254 C.3       1 <0>        -0.1481
     26 C17         5.9201   -5.5290    2.1897 C.3       1 <0>         0.1854
     27 C18         7.1736   -5.6336    1.3599 C.ar      1 <0>        -0.1156
     28 C19         7.1341   -5.2888    0.0100 C.ar      1 <0>        -0.1004
     29 C20         8.2479   -5.3723   -0.7675 C.ar      1 <0>        -0.1056
     30 C21         9.4579   -5.8119   -0.2039 C.ar      1 <0>        -0.0458
     31 C22        10.6289   -5.9106   -0.9748 C.ar      1 <0>        -0.1114
     32 C23        11.7827   -6.3400   -0.3948 C.ar      1 <0>        -0.1080
     33 C24        11.8224   -6.6845    0.9552 C.ar      1 <0>        -0.1127
     34 C25        10.7084   -6.6015    1.7325 C.ar      1 <0>        -0.1047
     35 C26         9.4983   -6.1622    1.1688 C.ar      1 <0>        -0.0540
     36 C27         8.3287   -6.0581    1.9411 C.ar      1 <0>        -0.0795
     37 Cl1         5.0210    0.5961    4.0724 Cl        1 <0>        -0.0270
     38 H1         -0.6062   -2.4532    0.2378 H         1 <0>         0.0624
     39 H2          0.8079   -2.0230    1.2296 H         1 <0>         0.0713
     40 H3         -0.8226   -1.5248    1.7409 H         1 <0>         0.0886
     41 H4         -1.0026   -0.0164   -0.1874 H         1 <0>         0.1051
     42 H5          0.4810    0.3565    0.7225 H         1 <0>         0.1236
     43 H6          0.7713   -1.5525   -5.3864 H         1 <0>         0.4454
     44 H7         -0.7047   -1.4096   -4.5966 H         1 <0>         0.4305
     45 H8          4.7814   -0.6271   -1.4398 H         1 <0>         0.4321
     46 H9          4.7911   -0.9812   -3.0821 H         1 <0>         0.4286
     47 H10         2.2509    1.7370    0.2698 H         1 <0>         0.1404
     48 H11         3.4106    2.2196    2.3818 H         1 <0>         0.1522
     49 H12         3.6857   -2.2975    0.3941 H         1 <0>         0.1420
     50 H13         7.4602   -4.4509    4.0748 H         1 <0>         0.0952
     51 H14         6.7311   -2.8273    4.0950 H         1 <0>         0.1150
     52 H15         6.1095   -4.0094    6.1467 H         1 <0>         0.0828
     53 H16         4.6653   -3.8206    5.1236 H         1 <0>         0.0711
     54 H17         5.2468   -8.2102    6.8287 H         1 <0>         0.1080
     55 H18         3.4942   -7.9432    6.6703 H         1 <0>         0.1043
     56 H19         4.4980   -8.1502    5.2150 H         1 <0>         0.0939
     57 H20         5.9479   -6.2734    2.9855 H         1 <0>         0.1102
     58 H21         5.0499   -5.7054    1.5574 H         1 <0>         0.0937
     59 H22         6.2054   -4.9507   -0.4256 H         1 <0>         0.1180
     60 H23         8.2021   -5.1024   -1.8122 H         1 <0>         0.1258
     61 H24        10.6131   -5.6474   -2.0221 H         1 <0>         0.1274
     62 H25        12.6810   -6.4153   -0.9895 H         1 <0>         0.1262
     63 H26        12.7509   -7.0227    1.3908 H         1 <0>         0.1267
     64 H27        10.7539   -6.8721    2.7771 H         1 <0>         0.1292
     65 H28         8.3455   -6.3175    2.9893 H         1 <0>         0.1296
     66 H29        -0.7542   -0.9331   -2.3376 H         1 <0>         0.4420
@<TRIPOS>BOND
     1    1    2 1
     2    1   38 1
     3    1   39 1
     4    1   40 1
     5    2    3 1
     6    2   41 1
     7    2   42 1
     8    3    8 ar
     9    3    4 ar
    10    4    5 ar
    11    4   11 1
    12    5    6 ar
    13    5   10 1
    14    6    7 ar
    15    7    8 ar
    16    7    9 1
    17    8   66 1
    18    9   43 1
    19    9   44 1
    20   10   45 1
    21   10   46 1
    22   11   16 ar
    23   11   12 ar
    24   12   13 ar
    25   12   47 1
    26   13   14 ar
    27   13   48 1
    28   14   15 ar
    29   14   37 1
    30   15   16 ar
    31   15   17 1
    32   16   49 1
    33   17   18 2
    34   18   19 1
    35   19   20 1
    36   19   26 1
    37   20   21 1
    38   20   50 1
    39   20   51 1
    40   21   22 1
    41   21   52 1
    42   21   53 1
    43   22   23 1
    44   23   24 2
    45   23   25 1
    46   25   54 1
    47   25   55 1
    48   25   56 1
    49   26   27 1
    50   26   57 1
    51   26   58 1
    52   27   36 ar
    53   27   28 ar
    54   28   29 ar
    55   28   59 1
    56   29   30 ar
    57   29   60 1
    58   30   35 ar
    59   30   31 ar
    60   31   32 ar
    61   31   61 1
    62   32   33 ar
    63   32   62 1
    64   33   34 ar
    65   33   63 1
    66   34   35 ar
    67   34   64 1
    68   35   36 ar
    69   36   65 1
@<TRIPOS>MOLECULE
CHEMBL313680__3
   65    68     0     0     0
SMALL
USER_CHARGES

@<TRIPOS>ATOM
      1 C1         -0.0187    1.5258    0.0104 C.3       1 <0>        -0.1413
      2 C2          0.0021   -0.0041    0.0020 C.3       1 <0>        -0.0813
      3 C3          0.7074   -0.4901   -1.2379 C.ar      1 <0>         0.2695
      4 C4         -0.0072   -0.7230   -2.4108 C.ar      1 <0>        -0.2855
      5 C5          0.6976   -1.1758   -3.5414 C.ar      1 <0>         0.4988
      6 N1          2.0092   -1.3625   -3.4473 N.ar      1 <0>        -0.6301
      7 C6          2.6467   -1.1276   -2.3102 C.ar      1 <0>         0.6109
      8 N2          2.0145   -0.6958   -1.2283 N.ar      1 <0>        -0.6023
      9 N3          4.0134   -1.3339   -2.2518 N.pl3     1 <0>        -0.8189
     10 N4          0.0355   -1.4228   -4.7308 N.pl3     1 <0>        -0.8300
     11 C7         -1.4723   -0.5002   -2.4663 C.ar      1 <0>         0.0004
     12 C8         -2.3276   -1.2823   -1.6899 C.ar      1 <0>        -0.0940
     13 C9         -3.6921   -1.0768   -1.7391 C.ar      1 <0>        -0.0981
     14 C10        -4.2195   -0.0958   -2.5572 C.ar      1 <0>        -0.0044
     15 C11        -3.3731    0.6937   -3.3392 C.ar      1 <0>         0.1150
     16 C12        -1.9952    0.4930   -3.2884 C.ar      1 <0>        -0.1172
     17 N5         -3.8969    1.6675   -4.1519 N.2       1 <0>        -0.3247
     18 N6         -3.1137    2.3956   -4.8733 N.2       1 <0>         0.0537
     19 N7         -3.6485    3.3898   -5.7030 N.pl3     1 <0>        -0.4736
     20 C13        -5.0971    3.6026   -5.7512 C.3       1 <0>         0.1008
     21 C14        -5.4811    4.7200   -4.7791 C.3       1 <0>         0.0518
     22 O1         -4.9033    5.9515   -5.2168 O.3       1 <0>        -0.3534
     23 C15        -5.1463    7.0388   -4.4680 C.2       1 <0>         0.4578
     24 O2         -5.8269    6.9478   -3.4738 O.2       1 <0>        -0.5100
     25 C16        -4.5701    8.3728   -4.8673 C.3       1 <0>        -0.1474
     26 C17        -2.7590    4.2167   -6.5224 C.3       1 <0>         0.1877
     27 C18        -2.6545    3.6248   -7.9043 C.ar      1 <0>        -0.1079
     28 C19        -1.6619    2.6846   -8.1751 C.ar      1 <0>        -0.0961
     29 C20        -1.5398    2.1311   -9.4124 C.ar      1 <0>        -0.1068
     30 C21        -2.4265    2.5106  -10.4345 C.ar      1 <0>        -0.0467
     31 C22        -2.3320    1.9605  -11.7243 C.ar      1 <0>        -0.1087
     32 C23        -3.2085    2.3518  -12.6891 C.ar      1 <0>        -0.1134
     33 C24        -4.2013    3.2918  -12.4182 C.ar      1 <0>        -0.1166
     34 C25        -4.3230    3.8456  -11.1811 C.ar      1 <0>        -0.1047
     35 C26        -3.4360    3.4663  -10.1591 C.ar      1 <0>        -0.0538
     36 C27        -3.5342    4.0122   -8.8678 C.ar      1 <0>        -0.0857
     37 Cl1        -5.9363    0.1555   -2.6134 Cl        1 <0>        -0.0496
     38 H1          1.0039    1.9031    0.0027 H         1 <0>         0.0592
     39 H2         -0.5459    1.8868   -0.8726 H         1 <0>         0.0549
     40 H3         -0.5289    1.8773    0.9072 H         1 <0>         0.0656
     41 H4          0.5293   -0.3651    0.8851 H         1 <0>         0.0879
     42 H5         -1.0205   -0.3814    0.0098 H         1 <0>         0.0880
     43 H6          4.4907   -1.6462   -3.0364 H         1 <0>         0.4139
     44 H7          4.4943   -1.1663   -1.4263 H         1 <0>         0.4159
     45 H8         -0.9227   -1.2840   -4.7903 H         1 <0>         0.4122
     46 H9          0.5294   -1.7347   -5.5051 H         1 <0>         0.4075
     47 H10        -1.9215   -2.0508   -1.0489 H         1 <0>         0.1360
     48 H11        -4.3498   -1.6853   -1.1363 H         1 <0>         0.1432
     49 H12        -1.3360    1.1033   -3.8879 H         1 <0>         0.1374
     50 H13        -5.3895    3.8846   -6.7626 H         1 <0>         0.0896
     51 H14        -5.6091    2.6829   -5.4680 H         1 <0>         0.1128
     52 H15        -6.5662    4.8183   -4.7488 H         1 <0>         0.0792
     53 H16        -5.1102    4.4784   -3.7830 H         1 <0>         0.0721
     54 H17        -5.2718    8.8906   -5.5211 H         1 <0>         0.1057
     55 H18        -4.3933    8.9738   -3.9753 H         1 <0>         0.1030
     56 H19        -3.6284    8.2188   -5.3942 H         1 <0>         0.0941
     57 H20        -3.1619    5.2273   -6.5895 H         1 <0>         0.1056
     58 H21        -1.7700    4.2494   -6.0654 H         1 <0>         0.0935
     59 H22        -0.9792    2.3912   -7.3914 H         1 <0>         0.1224
     60 H23        -0.7653    1.4042   -9.6078 H         1 <0>         0.1266
     61 H24        -1.5675    1.2314  -11.9488 H         1 <0>         0.1267
     62 H25        -3.1334    1.9278  -13.6796 H         1 <0>         0.1236
     63 H26        -4.8839    3.5852  -13.2019 H         1 <0>         0.1238
     64 H27        -5.0970    4.5731  -10.9858 H         1 <0>         0.1272
     65 H28        -4.3012    4.7383   -8.6422 H         1 <0>         0.1282
@<TRIPOS>BOND
     1    1    2 1
     2    1   38 1
     3    1   39 1
     4    1   40 1
     5    2    3 1
     6    2   41 1
     7    2   42 1
     8    3    8 ar
     9    3    4 ar
    10    4    5 ar
    11    4   11 1
    12    5    6 ar
    13    5   10 1
    14    6    7 ar
    15    7    8 ar
    16    7    9 1
    17    9   43 1
    18    9   44 1
    19   10   45 1
    20   10   46 1
    21   11   16 ar
    22   11   12 ar
    23   12   13 ar
    24   12   47 1
    25   13   14 ar
    26   13   48 1
    27   14   15 ar
    28   14   37 1
    29   15   16 ar
    30   15   17 1
    31   16   49 1
    32   17   18 2
    33   18   19 1
    34   19   20 1
    35   19   26 1
    36   20   21 1
    37   20   50 1
    38   20   51 1
    39   21   22 1
    40   21   52 1
    41   21   53 1
    42   22   23 1
    43   23   24 2
    44   23   25 1
    45   25   54 1
    46   25   55 1
    47   25   56 1
    48   26   27 1
    49   26   57 1
    50   26   58 1
    51   27   36 ar
    52   27   28 ar
    53   28   29 ar
    54   28   59 1
    55   29   30 ar
    56   29   60 1
    57   30   35 ar
    58   30   31 ar
    59   31   32 ar
    60   31   61 1
    61   32   33 ar
    62   32   62 1
    63   33   34 ar
    64   33   63 1
    65   34   35 ar
    66   34   64 1
    67   35   36 ar
    68   36   65 1
@<TRIPOS>MOLECULE
CHEMBL121348
   49    52     0     0     0
SMALL
USER_CHARGES

@<TRIPOS>ATOM
      1 C1          0.0128   -1.0551   -1.1492 C.3       1 <0>         0.1113
      2 N1         -0.0131   -0.0978   -0.0406 N.pl3     1 <0>        -0.6740
      3 C2          0.0432   -0.5771    1.3426 C.3       1 <0>         0.1488
      4 C3         -1.3764   -0.6860    1.9028 C.3       1 <0>        -0.1133
      5 C4         -1.3174   -1.0805    3.3831 C.3       1 <0>        -0.1145
      6 C5         -2.7207   -0.9543    3.9744 C.3       1 <0>        -0.1001
      7 C6         -3.7195   -1.6880    3.1209 C.ar      1 <0>         0.2385
      8 C7         -3.4572   -2.0528    1.8231 C.ar      1 <0>        -0.2189
      9 C8         -4.4520   -2.7267    1.1033 C.ar      1 <0>         0.5303
     10 N2         -5.6104   -2.9958    1.6940 N.ar      1 <0>        -0.5773
     11 C9         -5.8236   -2.6313    2.9493 C.ar      1 <0>         0.6650
     12 N3         -4.9020   -1.9914    3.6504 N.ar      1 <0>        -0.5758
     13 N4         -7.0393   -2.9262    3.5414 N.pl3     1 <0>        -0.7933
     14 N5         -4.2301   -3.1079   -0.2099 N.pl3     1 <0>        -0.7787
     15 C10        -2.1463   -1.7667    1.1445 C.3       1 <0>        -0.0653
     16 C11        -0.0911    1.2685   -0.3017 C.ar      1 <0>         0.1774
     17 C12        -1.3140    1.9053   -0.3161 C.ar      1 <0>        -0.1272
     18 C13        -1.4026    3.2695   -0.5754 C.ar      1 <0>        -0.1145
     19 C14        -0.2882    4.0122   -0.8219 C.ar      1 <0>        -0.1034
     20 C15         0.9774    3.4017   -0.8165 C.ar      1 <0>        -0.0456
     21 C16         1.0814    2.0145   -0.5482 C.ar      1 <0>        -0.0591
     22 C17         2.3468    1.4073   -0.5383 C.ar      1 <0>        -0.0998
     23 C18         3.4566    2.1579   -0.7807 C.ar      1 <0>        -0.1151
     24 C19         3.3560    3.5236   -1.0388 C.ar      1 <0>        -0.1112
     25 C20         2.1447    4.1436   -1.0681 C.ar      1 <0>        -0.1078
     26 H1         -1.0068   -1.3468   -1.4012 H         1 <0>         0.0311
     27 H2          0.4836   -0.5934   -2.0171 H         1 <0>         0.0603
     28 H3          0.5806   -1.9375   -0.8542 H         1 <0>         0.0616
     29 H4          0.5202   -1.5569    1.3685 H         1 <0>         0.0766
     30 H5          0.6194    0.1236    1.9468 H         1 <0>         0.0722
     31 H6         -1.8870    0.2710    1.7955 H         1 <0>         0.0865
     32 H7         -0.9728   -2.1105    3.4743 H         1 <0>         0.0820
     33 H8         -0.6357   -0.4149    3.9126 H         1 <0>         0.0971
     34 H9         -2.7274   -1.3757    4.9796 H         1 <0>         0.1101
     35 H10        -2.9963    0.0990    4.0267 H         1 <0>         0.1187
     36 H11        -7.7231   -3.3947    3.0376 H         1 <0>         0.4446
     37 H12        -7.2074   -2.6645    4.4602 H         1 <0>         0.4300
     38 H13        -3.4114   -2.8456   -0.6593 H         1 <0>         0.4309
     39 H14        -4.8933   -3.6370   -0.6800 H         1 <0>         0.4281
     40 H15        -2.3343   -1.4275    0.1259 H         1 <0>         0.0907
     41 H16        -1.5502   -2.6787    1.1130 H         1 <0>         0.0945
     42 H17        -2.2132    1.3388   -0.1244 H         1 <0>         0.1155
     43 H18        -2.3713    3.7471   -0.5815 H         1 <0>         0.1222
     44 H19        -0.3771    5.0698   -1.0218 H         1 <0>         0.1279
     45 H20         2.4397    0.3499   -0.3390 H         1 <0>         0.1254
     46 H21         4.4290    1.6881   -0.7725 H         1 <0>         0.1234
     47 H22         4.2517    4.0968   -1.2273 H         1 <0>         0.1253
     48 H23         2.0817    5.2025   -1.2706 H         1 <0>         0.1291
     49 H24        -5.0918   -1.7388    4.5674 H         1 <0>         0.4400
@<TRIPOS>BOND
     1    1    2 1
     2    1   26 1
     3    1   27 1
     4    1   28 1
     5    2    3 1
     6    2   16 1
     7    3    4 1
     8    3   29 1
     9    3   30 1
    10    4   15 1
    11    4    5 1
    12    4   31 1
    13    5    6 1
    14    5   32 1
    15    5   33 1
    16    6    7 1
    17    6   34 1
    18    6   35 1
    19    7   12 ar
    20    7    8 ar
    21    8    9 ar
    22    8   15 1
    23    9   10 ar
    24    9   14 1
    25   10   11 ar
    26   11   12 ar
    27   11   13 1
    28   12   49 1
    29   13   36 1
    30   13   37 1
    31   14   38 1
    32   14   39 1
    33   15   40 1
    34   15   41 1
    35   16   21 ar
    36   16   17 ar
    37   17   18 ar
    38   17   42 1
    39   18   19 ar
    40   18   43 1
    41   19   20 ar
    42   19   44 1
    43   20   25 ar
    44   20   21 ar
    45   21   22 ar
    46   22   23 ar
    47   22   45 1
    48   23   24 ar
    49   23   46 1
    50   24   25 ar
    51   24   47 1
    52   25   48 1
@<TRIPOS>MOLECULE
CHEMBL121348__1
   49    52     0     0     0
SMALL
USER_CHARGES

@<TRIPOS>ATOM
      1 C1         -0.0178    1.4608    0.0101 C.3       1 <0>         0.1071
      2 N1          0.0021   -0.0041    0.0020 N.pl3     1 <0>        -0.6750
      3 C2          0.0241   -0.7433    1.2666 C.3       1 <0>         0.1494
      4 C3         -1.4105   -1.0203    1.7205 C.3       1 <0>        -0.1226
      5 C4         -1.3924   -1.8784    2.9909 C.3       1 <0>        -0.1132
      6 C5         -2.8203   -2.3340    3.2882 C.3       1 <0>        -0.1010
      7 C6         -3.7598   -1.1586    3.2823 C.ar      1 <0>         0.2414
      8 C7         -3.4367    0.0441    2.7032 C.ar      1 <0>        -0.2210
      9 C8         -4.3794    1.0793    2.7403 C.ar      1 <0>         0.5305
     10 N2         -5.5486    0.8711    3.3343 N.ar      1 <0>        -0.5765
     11 C9         -5.8211   -0.3020    3.8855 C.ar      1 <0>         0.6653
     12 N3         -4.9496   -1.2970    3.8620 N.ar      1 <0>        -0.5757
     13 N4         -7.0462   -0.4910    4.5009 N.pl3     1 <0>        -0.7929
     14 N5         -4.0950    2.3067    2.1643 N.pl3     1 <0>        -0.7786
     15 C10        -2.1126    0.2994    2.0382 C.3       1 <0>        -0.0714
     16 C11         0.0000   -0.6941   -1.2083 C.ar      1 <0>         0.1697
     17 C12         1.1893   -1.0275   -1.8211 C.ar      1 <0>        -0.1161
     18 C13         1.1981   -1.7170   -3.0296 C.ar      1 <0>        -0.1065
     19 C14         0.0365   -2.0807   -3.6401 C.ar      1 <0>        -0.1059
     20 C15        -1.1973   -1.7601   -3.0488 C.ar      1 <0>        -0.0467
     21 C16        -1.2195   -1.0634   -1.8154 C.ar      1 <0>        -0.0559
     22 C17        -2.4526   -0.7484   -1.2237 C.ar      1 <0>        -0.1130
     23 C18        -3.6095   -1.1201   -1.8379 C.ar      1 <0>        -0.1210
     24 C19        -3.5888   -1.8108   -3.0480 C.ar      1 <0>        -0.1198
     25 C20        -2.4120   -2.1225   -3.6565 C.ar      1 <0>        -0.0987
     26 H1          1.0048    1.8381    0.0023 H         1 <0>         0.0432
     27 H2         -0.5450    1.8219   -0.8730 H         1 <0>         0.0580
     28 H3         -0.5280    1.8123    0.9069 H         1 <0>         0.0552
     29 H4          0.5496   -1.6879    1.1262 H         1 <0>         0.0758
     30 H5          0.5371   -0.1514    2.0246 H         1 <0>         0.0754
     31 H6         -1.9506   -1.5416    0.9302 H         1 <0>         0.0937
     32 H7         -0.7550   -2.7489    2.8358 H         1 <0>         0.0976
     33 H8         -1.0149   -1.2885    3.8261 H         1 <0>         0.0825
     34 H9         -3.1351   -3.0507    2.5296 H         1 <0>         0.1191
     35 H10        -2.8492   -2.8135    4.2666 H         1 <0>         0.1109
     36 H11        -7.6935    0.2310    4.5250 H         1 <0>         0.4447
     37 H12        -7.2576   -1.3456    4.9082 H         1 <0>         0.4301
     38 H13        -3.2391    2.4530    1.7321 H         1 <0>         0.4304
     39 H14        -4.7519    3.0199    2.1932 H         1 <0>         0.4286
     40 H15        -1.4836    0.8912    2.7032 H         1 <0>         0.0972
     41 H16        -2.2747    0.8530    1.1134 H         1 <0>         0.0913
     42 H17         2.1247   -0.7500   -1.3579 H         1 <0>         0.1253
     43 H18         2.1418   -1.9675   -3.4913 H         1 <0>         0.1274
     44 H19         0.0634   -2.6149   -4.5783 H         1 <0>         0.1295
     45 H20        -2.4836   -0.2141   -0.2856 H         1 <0>         0.1268
     46 H21        -4.5570   -0.8764   -1.3804 H         1 <0>         0.1131
     47 H22        -4.5206   -2.0948   -3.5145 H         1 <0>         0.1228
     48 H23        -2.4111   -2.6572   -4.5949 H         1 <0>         0.1298
     49 H24        -5.1822   -2.1433    4.2751 H         1 <0>         0.4403
@<TRIPOS>BOND
     1    1    2 1
     2    1   26 1
     3    1   27 1
     4    1   28 1
     5    2    3 1
     6    2   16 1
     7    3    4 1
     8    3   29 1
     9    3   30 1
    10    4   15 1
    11    4    5 1
    12    4   31 1
    13    5    6 1
    14    5   32 1
    15    5   33 1
    16    6    7 1
    17    6   34 1
    18    6   35 1
    19    7   12 ar
    20    7    8 ar
    21    8    9 ar
    22    8   15 1
    23    9   10 ar
    24    9   14 1
    25   10   11 ar
    26   11   12 ar
    27   11   13 1
    28   12   49 1
    29   13   36 1
    30   13   37 1
    31   14   38 1
    32   14   39 1
    33   15   40 1
    34   15   41 1
    35   16   21 ar
    36   16   17 ar
    37   17   18 ar
    38   17   42 1
    39   18   19 ar
    40   18   43 1
    41   19   20 ar
    42   19   44 1
    43   20   25 ar
    44   20   21 ar
    45   21   22 ar
    46   22   23 ar
    47   22   45 1
    48   23   24 ar
    49   23   46 1
    50   24   25 ar
    51   24   47 1
    52   25   48 1
@<TRIPOS>MOLECULE
CHEMBL23584
   42    45     0     0     0
SMALL
USER_CHARGES

@<TRIPOS>ATOM
      1 C1          0.6011    1.5059    0.0254 C.3       1 <0>        -0.1558
      2 C2          0.5962   -0.0011    0.0164 C.ar      1 <0>         0.0616
      3 C3          0.7688   -0.7002   -1.1496 C.ar      1 <0>        -0.1866
      4 C4          0.7608   -2.0894   -1.1311 C.ar      1 <0>         0.2117
      5 N1          0.5909   -2.7658   -0.0169 N.ar      1 <0>        -0.4864
      6 C5          0.4179   -2.1439    1.1495 C.ar      1 <0>         0.4165
      7 C6          0.4212   -0.7279    1.1995 C.ar      1 <0>        -0.2796
      8 C7          0.2403   -0.0941    2.4537 C.ar      1 <0>         0.5255
      9 N2          0.0808   -0.8575    3.5254 N.ar      1 <0>        -0.6166
     10 C8          0.0890   -2.1844    3.4359 C.ar      1 <0>         0.6253
     11 N3          0.2432   -2.8239    2.2917 N.ar      1 <0>        -0.5905
     12 N4         -0.0823   -2.9256    4.5893 N.pl3     1 <0>        -0.8100
     13 N5          0.2308    1.2796    2.5567 N.pl3     1 <0>        -0.8450
     14 C9          0.9664    0.0364   -2.4493 C.3       1 <0>        -0.0622
     15 S1          2.7370    0.3262   -2.7170 S.3       1 <0>        -0.0935
     16 C10         2.8008    1.1841   -4.2548 C.ar      1 <0>        -0.0758
     17 C11         1.6381    1.4767   -4.9377 C.ar      1 <0>        -0.1311
     18 C12         1.6780    2.1536   -6.1523 C.ar      1 <0>        -0.0991
     19 C13         2.8616    2.5460   -6.7002 C.ar      1 <0>        -0.1092
     20 C14         4.0688    2.2682   -6.0369 C.ar      1 <0>        -0.0381
     21 C15         4.0418    1.5838   -4.7968 C.ar      1 <0>        -0.0325
     22 C16         5.2479    1.3111   -4.1335 C.ar      1 <0>        -0.1029
     23 C17         6.4266    1.7111   -4.6860 C.ar      1 <0>        -0.1123
     24 C18         6.4541    2.3893   -5.9029 C.ar      1 <0>        -0.1111
     25 C19         5.3047    2.6610   -6.5794 C.ar      1 <0>        -0.1073
     26 H1          1.5929    1.8644    0.3007 H         1 <0>         0.0925
     27 H2          0.3435    1.8759   -0.9670 H         1 <0>         0.0827
     28 H3         -0.1298    1.8673    0.7488 H         1 <0>         0.1010
     29 H4          0.8976   -2.6280   -2.0572 H         1 <0>         0.1687
     30 H5         -0.2050   -2.4769    5.4405 H         1 <0>         0.4164
     31 H6         -0.0799   -3.8947    4.5479 H         1 <0>         0.4190
     32 H7         -0.4109    1.7180    3.1371 H         1 <0>         0.4109
     33 H8          0.8658    1.8084    2.0488 H         1 <0>         0.4190
     34 H9          0.5678   -0.5607   -3.2696 H         1 <0>         0.1022
     35 H10         0.4439    0.9921   -2.4084 H         1 <0>         0.1022
     36 H11         0.6864    1.1765   -4.5248 H         1 <0>         0.1238
     37 H12         0.7553    2.3712   -6.6695 H         1 <0>         0.1270
     38 H13         2.8723    3.0703   -7.6444 H         1 <0>         0.1295
     39 H14         5.2415    0.7868   -3.1893 H         1 <0>         0.1292
     40 H15         7.3534    1.4999   -4.1734 H         1 <0>         0.1257
     41 H16         7.4020    2.6964   -6.3195 H         1 <0>         0.1257
     42 H17         5.3412    3.1868   -7.5221 H         1 <0>         0.1299
@<TRIPOS>BOND
     1    1    2 1
     2    1   26 1
     3    1   27 1
     4    1   28 1
     5    2    7 ar
     6    2    3 ar
     7    3    4 ar
     8    3   14 1
     9    4    5 ar
    10    4   29 1
    11    5    6 ar
    12    6   11 ar
    13    6    7 ar
    14    7    8 ar
    15    8    9 ar
    16    8   13 1
    17    9   10 ar
    18   10   11 ar
    19   10   12 1
    20   12   30 1
    21   12   31 1
    22   13   32 1
    23   13   33 1
    24   14   15 1
    25   14   34 1
    26   14   35 1
    27   15   16 1
    28   16   21 ar
    29   16   17 ar
    30   17   18 ar
    31   17   36 1
    32   18   19 ar
    33   18   37 1
    34   19   20 ar
    35   19   38 1
    36   20   25 ar
    37   20   21 ar
    38   21   22 ar
    39   22   23 ar
    40   22   39 1
    41   23   24 ar
    42   23   40 1
    43   24   25 ar
    44   24   41 1
    45   25   42 1
@<TRIPOS>MOLECULE
CHEMBL23584__1
   43    46     0     0     0
SMALL
USER_CHARGES

@<TRIPOS>ATOM
      1 C1          0.6011    1.5059    0.0254 C.3       1 <0>        -0.1689
      2 C2          0.5962   -0.0011    0.0164 C.ar      1 <0>         0.0756
      3 C3          0.7688   -0.7002   -1.1496 C.ar      1 <0>        -0.1394
      4 C4          0.7608   -2.0894   -1.1311 C.ar      1 <0>         0.2395
      5 N1          0.5909   -2.7658   -0.0169 N.ar      1 <0>        -0.4952
      6 C5          0.4179   -2.1439    1.1495 C.ar      1 <0>         0.4053
      7 C6          0.4212   -0.7279    1.1995 C.ar      1 <0>        -0.2369
      8 C7          0.2403   -0.0941    2.4537 C.ar      1 <0>         0.5793
      9 N2          0.0808   -0.8575    3.5254 N.ar      1 <0>        -0.5779
     10 C8          0.0890   -2.1844    3.4359 C.ar      1 <0>         0.6993
     11 N3          0.2432   -2.8239    2.2917 N.ar      1 <0>        -0.5715
     12 N4         -0.0823   -2.9256    4.5893 N.pl3     1 <0>        -0.7774
     13 N5          0.2308    1.2796    2.5567 N.pl3     1 <0>        -0.8025
     14 C9          0.9664    0.0364   -2.4493 C.3       1 <0>        -0.0865
     15 S1          2.7370    0.3262   -2.7170 S.3       1 <0>        -0.0849
     16 C10         2.8008    1.1841   -4.2548 C.ar      1 <0>        -0.0852
     17 C11         1.6381    1.4767   -4.9377 C.ar      1 <0>        -0.1220
     18 C12         1.6780    2.1536   -6.1523 C.ar      1 <0>        -0.1058
     19 C13         2.8616    2.5460   -6.7002 C.ar      1 <0>        -0.0951
     20 C14         4.0688    2.2682   -6.0369 C.ar      1 <0>        -0.0399
     21 C15         4.0418    1.5838   -4.7968 C.ar      1 <0>        -0.0287
     22 C16         5.2479    1.3111   -4.1335 C.ar      1 <0>        -0.1114
     23 C17         6.4266    1.7111   -4.6860 C.ar      1 <0>        -0.1034
     24 C18         6.4541    2.3893   -5.9029 C.ar      1 <0>        -0.1101
     25 C19         5.3047    2.6610   -6.5794 C.ar      1 <0>        -0.1018
     26 H1          1.5929    1.8644    0.3007 H         1 <0>         0.1118
     27 H2          0.3435    1.8759   -0.9670 H         1 <0>         0.1031
     28 H3         -0.1298    1.8673    0.7488 H         1 <0>         0.1070
     29 H4          0.8976   -2.6280   -2.0572 H         1 <0>         0.1953
     30 H5         -0.2050   -2.4769    5.4405 H         1 <0>         0.4482
     31 H6         -0.0799   -3.8947    4.5479 H         1 <0>         0.4339
     32 H7         -0.4109    1.7180    3.1371 H         1 <0>         0.4309
     33 H8          0.8658    1.8084    2.0488 H         1 <0>         0.4366
     34 H9          0.5678   -0.5607   -3.2696 H         1 <0>         0.1150
     35 H10         0.4439    0.9921   -2.4084 H         1 <0>         0.1139
     36 H11         0.6864    1.1765   -4.5248 H         1 <0>         0.1223
     37 H12         0.7553    2.3712   -6.6695 H         1 <0>         0.1302
     38 H13         2.8723    3.0703   -7.6444 H         1 <0>         0.1337
     39 H14         5.2415    0.7868   -3.1893 H         1 <0>         0.1266
     40 H15         7.3534    1.4999   -4.1734 H         1 <0>         0.1279
     41 H16         7.4020    2.6964   -6.3195 H         1 <0>         0.1294
     42 H17         5.3412    3.1868   -7.5221 H         1 <0>         0.1336
     43 H18         0.2413   -3.7938    2.2786 H         1 <0>         0.4462
@<TRIPOS>BOND
     1    1    2 1
     2    1   26 1
     3    1   27 1
     4    1   28 1
     5    2    7 ar
     6    2    3 ar
     7    3    4 ar
     8    3   14 1
     9    4    5 ar
    10    4   29 1
    11    5    6 ar
    12    6   11 ar
    13    6    7 ar
    14    7    8 ar
    15    8    9 ar
    16    8   13 1
    17    9   10 ar
    18   10   11 ar
    19   10   12 1
    20   11   43 1
    21   12   30 1
    22   12   31 1
    23   13   32 1
    24   13   33 1
    25   14   15 1
    26   14   34 1
    27   14   35 1
    28   15   16 1
    29   16   21 ar
    30   16   17 ar
    31   17   18 ar
    32   17   36 1
    33   18   19 ar
    34   18   37 1
    35   19   20 ar
    36   19   38 1
    37   20   25 ar
    38   20   21 ar
    39   21   22 ar
    40   22   23 ar
    41   22   39 1
    42   23   24 ar
    43   23   40 1
    44   24   25 ar
    45   24   41 1
    46   25   42 1
@<TRIPOS>MOLECULE
CHEMBL274031
   41    43     0     0     0
SMALL
USER_CHARGES

@<TRIPOS>ATOM
      1 C1         -0.0167    1.3781    0.0096 C.ar      1 <0>        -0.1087
      2 C2          1.1709    2.0855    0.0021 C.ar      1 <0>        -0.1228
      3 C3          2.3773    1.4107   -0.0130 C.ar      1 <0>        -0.0955
      4 C4          2.3960    0.0285   -0.0201 C.ar      1 <0>        -0.0986
      5 C5          1.2084   -0.6789   -0.0117 C.ar      1 <0>        -0.0953
      6 C6          0.0021   -0.0041    0.0020 C.ar      1 <0>        -0.1228
      7 C7          3.7112   -0.7071   -0.0376 C.3       1 <0>         0.1028
      8 O1          4.1410   -0.9464    1.3041 O.3       1 <0>        -0.3091
      9 C8          5.3186   -1.6049    1.4665 C.ar      1 <0>         0.1341
     10 C9          6.0484   -2.0075    0.3573 C.ar      1 <0>        -0.2144
     11 C10         7.2453   -2.6763    0.5250 C.ar      1 <0>        -0.0740
     12 C11         7.7163   -2.9447    1.7972 C.ar      1 <0>        -0.1509
     13 C12         6.9908   -2.5451    2.9040 C.ar      1 <0>        -0.0377
     14 C13         5.7958   -1.8708    2.7416 C.ar      1 <0>        -0.1513
     15 C14         7.5067   -2.8397    4.2890 C.3       1 <0>        -0.0159
     16 C15         8.3712   -1.6972    4.7565 C.ar      1 <0>        -0.3075
     17 C16         9.7423   -1.7363    4.5938 C.ar      1 <0>         0.2239
     18 N1         10.4744   -0.7157    5.0152 N.ar      1 <0>        -0.6059
     19 C17         9.9095    0.3370    5.5882 C.ar      1 <0>         0.6018
     20 N2          8.5989    0.4131    5.7631 N.ar      1 <0>        -0.6276
     21 C18         7.8037   -0.5725    5.3589 C.ar      1 <0>         0.4886
     22 N3          6.4326   -0.4875    5.5380 N.pl3     1 <0>        -0.8341
     23 N4         10.7090    1.3830    6.0149 N.pl3     1 <0>        -0.8219
     24 H1         -0.9591    1.9053    0.0259 H         1 <0>         0.1252
     25 H2          1.1563    3.1654    0.0076 H         1 <0>         0.1259
     26 H3          3.3051    1.9634   -0.0196 H         1 <0>         0.1236
     27 H4          1.2231   -1.7588   -0.0176 H         1 <0>         0.1243
     28 H5         -0.9258   -0.5567    0.0082 H         1 <0>         0.1262
     29 H6          3.5884   -1.6586   -0.5549 H         1 <0>         0.0721
     30 H7          4.4573   -0.1052   -0.5563 H         1 <0>         0.0711
     31 H8          5.6809   -1.7984   -0.6365 H         1 <0>         0.1265
     32 H9          7.8135   -2.9902   -0.3381 H         1 <0>         0.1258
     33 H10         8.6523   -3.4678    1.9263 H         1 <0>         0.1251
     34 H11         5.2316   -1.5548    3.6066 H         1 <0>         0.1232
     35 H12         6.6658   -2.9621    4.9716 H         1 <0>         0.0757
     36 H13         8.0956   -3.7567    4.2699 H         1 <0>         0.0898
     37 H14        10.2125   -2.5899    4.1283 H         1 <0>         0.1639
     38 H15         5.8593   -1.2127    5.2441 H         1 <0>         0.4098
     39 H16         6.0459    0.2970    5.9572 H         1 <0>         0.4064
     40 H17        11.6703    1.3396    5.8930 H         1 <0>         0.4151
     41 H18        10.3080    2.1594    6.4358 H         1 <0>         0.4128
@<TRIPOS>BOND
     1    1    6 ar
     2    1    2 ar
     3    1   24 1
     4    2    3 ar
     5    2   25 1
     6    3    4 ar
     7    3   26 1
     8    4    5 ar
     9    4    7 1
    10    5    6 ar
    11    5   27 1
    12    6   28 1
    13    7    8 1
    14    7   29 1
    15    7   30 1
    16    8    9 1
    17    9   14 ar
    18    9   10 ar
    19   10   11 ar
    20   10   31 1
    21   11   12 ar
    22   11   32 1
    23   12   13 ar
    24   12   33 1
    25   13   14 ar
    26   13   15 1
    27   14   34 1
    28   15   16 1
    29   15   35 1
    30   15   36 1
    31   16   21 ar
    32   16   17 ar
    33   17   18 ar
    34   17   37 1
    35   18   19 ar
    36   19   20 ar
    37   19   23 1
    38   20   21 ar
    39   21   22 1
    40   22   38 1
    41   22   39 1
    42   23   40 1
    43   23   41 1
@<TRIPOS>MOLECULE
CHEMBL274031__1
   42    44     0     0     0
SMALL
USER_CHARGES

@<TRIPOS>ATOM
      1 C1         -0.0167    1.3781    0.0096 C.ar      1 <0>        -0.1040
      2 C2          1.1709    2.0855    0.0021 C.ar      1 <0>        -0.1221
      3 C3          2.3773    1.4107   -0.0130 C.ar      1 <0>        -0.0960
      4 C4          2.3960    0.0285   -0.0201 C.ar      1 <0>        -0.1053
      5 C5          1.2084   -0.6789   -0.0117 C.ar      1 <0>        -0.0943
      6 C6          0.0021   -0.0041    0.0020 C.ar      1 <0>        -0.1208
      7 C7          3.7112   -0.7071   -0.0376 C.3       1 <0>         0.1033
      8 O1          4.1410   -0.9464    1.3041 O.3       1 <0>        -0.3072
      9 C8          5.3186   -1.6049    1.4665 C.ar      1 <0>         0.1436
     10 C9          6.0484   -2.0075    0.3573 C.ar      1 <0>        -0.2026
     11 C10         7.2453   -2.6763    0.5250 C.ar      1 <0>        -0.0676
     12 C11         7.7163   -2.9447    1.7972 C.ar      1 <0>        -0.1516
     13 C12         6.9908   -2.5451    2.9040 C.ar      1 <0>        -0.0624
     14 C13         5.7958   -1.8708    2.7416 C.ar      1 <0>        -0.1550
     15 C14         7.5067   -2.8397    4.2890 C.3       1 <0>        -0.0292
     16 C15         8.3712   -1.6972    4.7565 C.ar      1 <0>        -0.2216
     17 C16         9.7423   -1.7363    4.5938 C.ar      1 <0>         0.2088
     18 N1         10.4744   -0.7157    5.0152 N.ar      1 <0>        -0.5703
     19 C17         9.9095    0.3368    5.5885 C.ar      1 <0>         0.6616
     20 N2          8.5990    0.4129    5.7635 N.ar      1 <0>        -0.5735
     21 C18         7.8037   -0.5725    5.3589 C.ar      1 <0>         0.5357
     22 N3          6.4326   -0.4875    5.5380 N.pl3     1 <0>        -0.7758
     23 N4         10.7091    1.3826    6.0157 N.pl3     1 <0>        -0.7923
     24 H1         -0.9591    1.9053    0.0259 H         1 <0>         0.1278
     25 H2          1.1563    3.1654    0.0076 H         1 <0>         0.1274
     26 H3          3.3051    1.9634   -0.0196 H         1 <0>         0.1224
     27 H4          1.2231   -1.7588   -0.0176 H         1 <0>         0.1247
     28 H5         -0.9258   -0.5567    0.0082 H         1 <0>         0.1285
     29 H6          3.5884   -1.6586   -0.5549 H         1 <0>         0.0756
     30 H7          4.4573   -0.1052   -0.5563 H         1 <0>         0.0736
     31 H8          5.6809   -1.7984   -0.6365 H         1 <0>         0.1336
     32 H9          7.8135   -2.9902   -0.3381 H         1 <0>         0.1321
     33 H10         8.6523   -3.4678    1.9263 H         1 <0>         0.1270
     34 H11         5.2316   -1.5548    3.6066 H         1 <0>         0.1228
     35 H12         6.6658   -2.9621    4.9716 H         1 <0>         0.0977
     36 H13         8.0956   -3.7567    4.2699 H         1 <0>         0.1121
     37 H14        10.2125   -2.5899    4.1283 H         1 <0>         0.2152
     38 H15         5.8593   -1.2127    5.2441 H         1 <0>         0.4295
     39 H16         6.0459    0.2970    5.9572 H         1 <0>         0.4286
     40 H17        11.6704    1.3392    5.8938 H         1 <0>         0.4305
     41 H18        10.3081    2.1589    6.4369 H         1 <0>         0.4447
     42 H19        11.4375   -0.7395    4.9027 H         1 <0>         0.4446
@<TRIPOS>BOND
     1    1    6 ar
     2    1    2 ar
     3    1   24 1
     4    2    3 ar
     5    2   25 1
     6    3    4 ar
     7    3   26 1
     8    4    5 ar
     9    4    7 1
    10    5    6 ar
    11    5   27 1
    12    6   28 1
    13    7    8 1
    14    7   29 1
    15    7   30 1
    16    8    9 1
    17    9   14 ar
    18    9   10 ar
    19   10   11 ar
    20   10   31 1
    21   11   12 ar
    22   11   32 1
    23   12   13 ar
    24   12   33 1
    25   13   14 ar
    26   13   15 1
    27   14   34 1
    28   15   16 1
    29   15   35 1
    30   15   36 1
    31   16   21 ar
    32   16   17 ar
    33   17   18 ar
    34   17   37 1
    35   18   19 ar
    36   18   42 1
    37   19   20 ar
    38   19   23 1
    39   20   21 ar
    40   21   22 1
    41   22   38 1
    42   22   39 1
    43   23   40 1
    44   23   41 1
@<TRIPOS>MOLECULE
CHEMBL1091244
   51    54     0     0     0
SMALL
USER_CHARGES

@<TRIPOS>ATOM
      1 C1         -0.0184    1.5028    0.0103 C.3       1 <0>        -0.1145
      2 C2          0.0021   -0.0041    0.0020 C.ar      1 <0>        -0.1060
      3 C3          0.0056   -0.6842   -1.2091 C.ar      1 <0>        -0.0692
      4 C4          0.0235   -2.0499   -1.2485 C.ar      1 <0>        -0.1088
      5 C5          0.0390   -2.7765   -0.0541 C.ar      1 <0>         0.1635
      6 C6          0.0359   -2.0807    1.1763 C.ar      1 <0>        -0.1966
      7 C7          0.0226   -0.6866    1.1869 C.ar      1 <0>        -0.0399
      8 C8          0.0529   -2.8662    2.4178 C.2       1 <0>         0.5561
      9 O1          0.0508   -2.3246    3.5079 O.2       1 <0>        -0.5026
     10 N1          0.0707   -4.2147    2.3037 N.am      1 <0>        -0.5221
     11 C9          0.0724   -4.8053    1.0723 C.2       1 <0>         0.3735
     12 N2          0.0574   -4.1245   -0.0471 N.2       1 <0>        -0.5301
     13 S1          0.0965   -6.5649    0.9848 S.3       1 <0>        -0.0093
     14 C10         0.0919   -6.9159   -0.7950 C.3       1 <0>        -0.0701
     15 C11         0.1115   -8.4069   -1.0130 C.2       1 <0>        -0.1493
     16 C12        -0.9238   -9.0071   -1.5834 C.2       1 <0>        -0.0769
     17 C13        -0.9045  -10.4695   -1.7972 C.ar      1 <0>        -0.0655
     18 C14         0.1994  -11.2220   -1.3946 C.ar      1 <0>        -0.1099
     19 C15         0.2112  -12.5867   -1.5971 C.ar      1 <0>        -0.1192
     20 C16        -0.8682  -13.2092   -2.1983 C.ar      1 <0>        -0.1147
     21 C17        -1.9656  -12.4688   -2.6002 C.ar      1 <0>        -0.1200
     22 C18        -1.9926  -11.1042   -2.3974 C.ar      1 <0>        -0.1035
     23 C19         0.0887   -5.0465    3.5095 C.3       1 <0>         0.1316
     24 C20        -1.3258   -5.3512    3.9308 C.ar      1 <0>        -0.1229
     25 C21        -1.9861   -4.5025    4.7995 C.ar      1 <0>        -0.0910
     26 C22        -3.2836   -4.7820    5.1860 C.ar      1 <0>        -0.1244
     27 C23        -3.9209   -5.9097    4.7034 C.ar      1 <0>        -0.1069
     28 C24        -3.2608   -6.7579    3.8340 C.ar      1 <0>        -0.1232
     29 C25        -1.9648   -6.4762    3.4441 C.ar      1 <0>        -0.0975
     30 H1          1.0042    1.8801    0.0026 H         1 <0>         0.0735
     31 H2         -0.5455    1.8639   -0.8728 H         1 <0>         0.0701
     32 H3         -0.5286    1.8543    0.9071 H         1 <0>         0.0690
     33 H4         -0.0064   -0.1254   -2.1332 H         1 <0>         0.1344
     34 H5          0.0253   -2.5654   -2.1975 H         1 <0>         0.1390
     35 H6          0.0241   -0.1497    2.1240 H         1 <0>         0.1373
     36 H7         -0.8065   -6.4945   -1.2461 H         1 <0>         0.1040
     37 H8          0.9733   -6.4697   -1.2555 H         1 <0>         0.1104
     38 H9          0.9690   -8.9865   -0.7045 H         1 <0>         0.1267
     39 H10        -1.7812   -8.4275   -1.8919 H         1 <0>         0.1245
     40 H11         1.0430  -10.7372   -0.9258 H         1 <0>         0.1254
     41 H12         1.0650  -13.1703   -1.2860 H         1 <0>         0.1247
     42 H13        -0.8540  -14.2777   -2.3549 H         1 <0>         0.1234
     43 H14        -2.8048  -12.9605   -3.0696 H         1 <0>         0.1249
     44 H15        -2.8520  -10.5280   -2.7069 H         1 <0>         0.1254
     45 H16         0.6141   -5.9783    3.3002 H         1 <0>         0.1071
     46 H17         0.5998   -4.5134    4.3111 H         1 <0>         0.1137
     47 H18        -1.4883   -3.6214    5.1766 H         1 <0>         0.1284
     48 H19        -3.7993   -4.1193    5.8652 H         1 <0>         0.1245
     49 H20        -4.9343   -6.1284    5.0059 H         1 <0>         0.1241
     50 H21        -3.7586   -7.6391    3.4572 H         1 <0>         0.1259
     51 H22        -1.4504   -7.1368    2.7620 H         1 <0>         0.1330
@<TRIPOS>BOND
     1    1    2 1
     2    1   30 1
     3    1   31 1
     4    1   32 1
     5    2    7 ar
     6    2    3 ar
     7    3    4 ar
     8    3   33 1
     9    4    5 ar
    10    4   34 1
    11    5   12 1
    12    5    6 ar
    13    6    7 ar
    14    6    8 1
    15    7   35 1
    16    8    9 2
    17    8   10 am
    18   10   11 1
    19   10   23 1
    20   11   12 2
    21   11   13 1
    22   13   14 1
    23   14   15 1
    24   14   36 1
    25   14   37 1
    26   15   16 2
    27   15   38 1
    28   16   17 1
    29   16   39 1
    30   17   22 ar
    31   17   18 ar
    32   18   19 ar
    33   18   40 1
    34   19   20 ar
    35   19   41 1
    36   20   21 ar
    37   20   42 1
    38   21   22 ar
    39   21   43 1
    40   22   44 1
    41   23   24 1
    42   23   45 1
    43   23   46 1
    44   24   29 ar
    45   24   25 ar
    46   25   26 ar
    47   25   47 1
    48   26   27 ar
    49   26   48 1
    50   27   28 ar
    51   27   49 1
    52   28   29 ar
    53   28   50 1
    54   29   51 1
@<TRIPOS>MOLECULE
CHEMBL9824
   59    61     0     0     0
SMALL
USER_CHARGES

@<TRIPOS>ATOM
      1 C1         -0.0187    1.5258    0.0104 C.3       1 <0>        -0.1488
      2 C2          0.0021   -0.0041    0.0020 C.3       1 <0>        -0.1139
      3 C3         -1.4333   -0.5336    0.0129 C.3       1 <0>        -0.0286
      4 C4         -1.4133   -2.0590    0.1302 C.3       1 <0>        -0.0632
      5 C5         -0.8330   -2.4526    1.4642 C.2       1 <0>         0.1107
      6 N1         -0.4590   -1.5317    2.2818 N.2       1 <0>        -0.4186
      7 C6          0.1062   -1.8279    3.4870 C.ar      1 <0>        -0.1886
      8 C7          0.2686   -0.8567    4.4850 C.ar      1 <0>         0.5310
      9 N2          0.8229   -1.2194    5.6398 N.ar      1 <0>        -0.6495
     10 C8          1.2147   -2.4672    5.8515 C.ar      1 <0>         0.6349
     11 N3          1.0807   -3.4154    4.9320 N.ar      1 <0>        -0.6400
     12 C9          0.5422   -3.1354    3.7559 C.ar      1 <0>         0.4683
     13 N4          0.3997   -4.0927    2.7623 N.pl3     1 <0>        -0.7161
     14 C10        -0.7111   -3.9142    1.8094 C.3       1 <0>         0.1291
     15 N5          1.7824   -2.7926    7.0701 N.pl3     1 <0>        -0.8186
     16 N6         -0.1376    0.4496    4.2742 N.pl3     1 <0>        -0.8139
     17 C11        -2.1247   -0.1373   -1.2662 C.ar      1 <0>        -0.0690
     18 C12        -1.6224   -0.5660   -2.4820 C.ar      1 <0>        -0.1275
     19 C13        -2.2505   -0.2067   -3.6566 C.ar      1 <0>        -0.0643
     20 C14        -3.3951    0.5911   -3.6165 C.ar      1 <0>        -0.1100
     21 C15        -3.8966    1.0202   -2.3866 C.ar      1 <0>        -0.0830
     22 C16        -3.2621    0.6491   -1.2191 C.ar      1 <0>        -0.1223
     23 C17        -4.0731    0.9804   -4.8713 C.2       1 <0>         0.5476
     24 O1         -3.6339    0.6055   -5.9410 O.2       1 <0>        -0.5566
     25 N7         -5.1781    1.7508   -4.8293 N.am      1 <0>        -0.6747
     26 C18        -5.8499    2.1365   -6.0727 C.3       1 <0>         0.0726
     27 C19        -6.6281    3.4350   -5.8503 C.3       1 <0>        -0.0811
     28 C20        -5.6487    4.5714   -5.5501 C.3       1 <0>        -0.1774
     29 C21        -6.4151    5.8504   -5.3311 C.2       1 <0>         0.4910
     30 O2         -7.6319    5.8527   -5.4080 O.co2     1 <0>        -0.6974
     31 O3         -5.8184    6.8828   -5.0770 O.co2     1 <0>        -0.7199
     32 C22        -6.8023    1.0451   -6.4886 C.2       1 <0>         0.4972
     33 O4         -7.0477    0.1267   -5.7252 O.co2     1 <0>        -0.6979
     34 O5         -7.3273    1.0806   -7.5884 O.co2     1 <0>        -0.7010
     35 H1          1.0039    1.9031    0.0027 H         1 <0>         0.0450
     36 H2         -0.5459    1.8868   -0.8726 H         1 <0>         0.0574
     37 H3         -0.5289    1.8773    0.9072 H         1 <0>         0.0497
     38 H4          0.5123   -0.3556   -0.8948 H         1 <0>         0.0532
     39 H5          0.5293   -0.3651    0.8851 H         1 <0>         0.0796
     40 H6         -1.9701   -0.1109    0.8621 H         1 <0>         0.0841
     41 H7         -2.4301   -2.4431    0.0488 H         1 <0>         0.0905
     42 H8         -0.8018   -2.4769   -0.6695 H         1 <0>         0.0867
     43 H9          1.0040   -4.8489    2.6996 H         1 <0>         0.4134
     44 H10        -1.6412   -4.2608    2.2599 H         1 <0>         0.0750
     45 H11        -0.5084   -4.4865    0.9042 H         1 <0>         0.1034
     46 H12         1.8882   -2.1119    7.7530 H         1 <0>         0.4138
     47 H13         2.0748   -3.7014    7.2418 H         1 <0>         0.4134
     48 H14        -0.5399    0.7019    3.4284 H         1 <0>         0.4230
     49 H15        -0.0200    1.1127    4.9723 H         1 <0>         0.4057
     50 H16        -0.7365   -1.1830   -2.5116 H         1 <0>         0.1202
     51 H17        -1.8573   -0.5417   -4.6050 H         1 <0>         0.1315
     52 H18        -4.7818    1.6377   -2.3488 H         1 <0>         0.1274
     53 H19        -3.6516    0.9768   -0.2666 H         1 <0>         0.1221
     54 H20        -5.5286    2.0499   -3.9757 H         1 <0>         0.3899
     55 H21        -5.1066    2.2879   -6.8554 H         1 <0>         0.0780
     56 H22        -7.1988    3.6747   -6.7475 H         1 <0>         0.0769
     57 H23        -7.3094    3.3107   -5.0087 H         1 <0>         0.0564
     58 H24        -5.0779    4.3317   -4.6529 H         1 <0>         0.0505
     59 H25        -4.9673    4.6958   -6.3917 H         1 <0>         0.0525
@<TRIPOS>BOND
     1    1    2 1
     2    1   35 1
     3    1   36 1
     4    1   37 1
     5    2    3 1
     6    2   38 1
     7    2   39 1
     8    3    4 1
     9    3   17 1
    10    3   40 1
    11    4    5 1
    12    4   41 1
    13    4   42 1
    14    5   14 1
    15    5    6 2
    16    6    7 1
    17    7   12 ar
    18    7    8 ar
    19    8    9 ar
    20    8   16 1
    21    9   10 ar
    22   10   11 ar
    23   10   15 1
    24   11   12 ar
    25   12   13 1
    26   13   14 1
    27   13   43 1
    28   14   44 1
    29   14   45 1
    30   15   46 1
    31   15   47 1
    32   16   48 1
    33   16   49 1
    34   17   22 ar
    35   17   18 ar
    36   18   19 ar
    37   18   50 1
    38   19   20 ar
    39   19   51 1
    40   20   21 ar
    41   20   23 1
    42   21   22 ar
    43   21   52 1
    44   22   53 1
    45   23   24 2
    46   23   25 am
    47   25   26 1
    48   25   54 1
    49   26   27 1
    50   26   32 1
    51   26   55 1
    52   27   28 1
    53   27   56 1
    54   27   57 1
    55   28   29 1
    56   28   58 1
    57   28   59 1
    58   29   30 2
    59   29   31 1
    60   32   33 2
    61   32   34 1
@<TRIPOS>MOLECULE
CHEMBL9824__1
   60    62     0     0     0
SMALL
USER_CHARGES

@<TRIPOS>ATOM
      1 C1         -0.0187    1.5258    0.0104 C.3       1 <0>        -0.1513
      2 C2          0.0021   -0.0041    0.0020 C.3       1 <0>        -0.1153
      3 C3          0.7182   -0.4975   -1.2568 C.3       1 <0>        -0.0274
      4 C4          0.6303   -2.0233   -1.3286 C.3       1 <0>        -0.0792
      5 C5         -0.8088   -2.4360   -1.5010 C.2       1 <0>         0.1840
      6 N1         -1.7182   -1.5276   -1.5675 N.2       1 <0>        -0.4481
      7 C6         -3.0397   -1.8421   -1.6866 C.ar      1 <0>        -0.1232
      8 C7         -4.0003   -0.8788   -2.0255 C.ar      1 <0>         0.5290
      9 N2         -5.2718   -1.2593   -2.1302 N.ar      1 <0>        -0.5931
     10 C8         -5.6314   -2.5173   -1.9218 C.ar      1 <0>         0.6732
     11 N3         -4.7534   -3.4586   -1.5971 N.ar      1 <0>        -0.5700
     12 C9         -3.4701   -3.1611   -1.4697 C.ar      1 <0>         0.4955
     13 N4         -2.5235   -4.1110   -1.1154 N.pl3     1 <0>        -0.6777
     14 C10        -1.1460   -3.9013   -1.5972 C.3       1 <0>         0.1041
     15 N5         -6.9654   -2.8611   -2.0460 N.pl3     1 <0>        -0.7941
     16 N6         -3.6351    0.4380   -2.2458 N.pl3     1 <0>        -0.7871
     17 C11         2.1652   -0.0794   -1.2080 C.ar      1 <0>        -0.0824
     18 C12         2.9739   -0.5164   -0.1738 C.ar      1 <0>        -0.1266
     19 C13         4.2994   -0.1373   -0.1232 C.ar      1 <0>        -0.0634
     20 C14         4.8242    0.6888   -1.1183 C.ar      1 <0>        -0.0998
     21 C15         4.0030    1.1261   -2.1588 C.ar      1 <0>        -0.0826
     22 C16         2.6807    0.7351   -2.2006 C.ar      1 <0>        -0.1201
     23 C17         6.2437    1.0994   -1.0702 C.2       1 <0>         0.5431
     24 O1          6.9565    0.7174   -0.1627 O.2       1 <0>        -0.5526
     25 N7          6.7475    1.8972   -2.0326 N.am      1 <0>        -0.6718
     26 C18         8.1541    2.3040   -1.9849 C.3       1 <0>         0.0719
     27 C19         8.3302    3.6208   -2.7438 C.3       1 <0>        -0.0819
     28 C20         7.5630    4.7312   -2.0232 C.3       1 <0>        -0.1769
     29 C21         7.7364    6.0282   -2.7707 C.2       1 <0>         0.4902
     30 O2          8.4111    6.0613   -3.7857 O.co2     1 <0>        -0.6957
     31 O3          7.2020    7.0444   -2.3605 O.co2     1 <0>        -0.7195
     32 C22         9.0071    1.2383   -2.6234 C.2       1 <0>         0.4972
     33 O4          8.4830    0.3236   -3.2359 O.co2     1 <0>        -0.6997
     34 O5         10.2215    1.2907   -2.5274 O.co2     1 <0>        -0.6969
     35 H1          1.0039    1.9031    0.0027 H         1 <0>         0.0638
     36 H2         -0.5459    1.8868   -0.8726 H         1 <0>         0.0473
     37 H3         -0.5289    1.8773    0.9072 H         1 <0>         0.0478
     38 H4          0.5293   -0.3651    0.8851 H         1 <0>         0.0597
     39 H5         -1.0205   -0.3814    0.0098 H         1 <0>         0.0709
     40 H6          0.2444   -0.0644   -2.1377 H         1 <0>         0.0842
     41 H7          1.2150   -2.3814   -2.1759 H         1 <0>         0.1084
     42 H8          1.0239   -2.4536   -0.4077 H         1 <0>         0.1041
     43 H9         -2.7594   -4.8819   -0.5760 H         1 <0>         0.4324
     44 H10        -1.0659   -4.2260   -2.6347 H         1 <0>         0.1055
     45 H11        -0.4543   -4.4754   -0.9806 H         1 <0>         0.1312
     46 H12        -7.6204   -2.1857   -2.2823 H         1 <0>         0.4275
     47 H13        -7.2460   -3.7775   -1.8969 H         1 <0>         0.4446
     48 H14        -2.7055    0.7033   -2.1662 H         1 <0>         0.4513
     49 H15        -4.3088    1.0955   -2.4797 H         1 <0>         0.4210
     50 H16         2.5664   -1.1553    0.5957 H         1 <0>         0.1199
     51 H17         4.9295   -0.4788    0.6847 H         1 <0>         0.1343
     52 H18         4.4030    1.7655   -2.9318 H         1 <0>         0.1299
     53 H19         2.0453    1.0691   -3.0075 H         1 <0>         0.1213
     54 H20         6.1788    2.2020   -2.7568 H         1 <0>         0.3893
     55 H21         8.4582    2.4394   -0.9470 H         1 <0>         0.0793
     56 H22         9.3886    3.8779   -2.7846 H         1 <0>         0.0787
     57 H23         7.9437    3.5107   -3.7570 H         1 <0>         0.0566
     58 H24         6.5045    4.4741   -1.9824 H         1 <0>         0.0486
     59 H25         7.9494    4.8413   -1.0100 H         1 <0>         0.0530
     60 H26        -5.9474   -0.6033   -2.3632 H         1 <0>         0.4379
@<TRIPOS>BOND
     1    1    2 1
     2    1   35 1
     3    1   36 1
     4    1   37 1
     5    2    3 1
     6    2   38 1
     7    2   39 1
     8    3    4 1
     9    3   17 1
    10    3   40 1
    11    4    5 1
    12    4   41 1
    13    4   42 1
    14    5   14 1
    15    5    6 2
    16    6    7 1
    17    7   12 ar
    18    7    8 ar
    19    8    9 ar
    20    8   16 1
    21    9   10 ar
    22    9   60 1
    23   10   11 ar
    24   10   15 1
    25   11   12 ar
    26   12   13 1
    27   13   14 1
    28   13   43 1
    29   14   44 1
    30   14   45 1
    31   15   46 1
    32   15   47 1
    33   16   48 1
    34   16   49 1
    35   17   22 ar
    36   17   18 ar
    37   18   19 ar
    38   18   50 1
    39   19   20 ar
    40   19   51 1
    41   20   21 ar
    42   20   23 1
    43   21   22 ar
    44   21   52 1
    45   22   53 1
    46   23   24 2
    47   23   25 am
    48   25   26 1
    49   25   54 1
    50   26   27 1
    51   26   32 1
    52   26   55 1
    53   27   28 1
    54   27   56 1
    55   27   57 1
    56   28   29 1
    57   28   58 1
    58   28   59 1
    59   29   30 2
    60   29   31 1
    61   32   33 2
    62   32   34 1
@<TRIPOS>MOLECULE
CHEMBL9824__2
   59    61     0     0     0
SMALL
USER_CHARGES

@<TRIPOS>ATOM
      1 C1         -0.0187    1.5258    0.0104 C.3       1 <0>        -0.1491
      2 C2          0.0021   -0.0041    0.0020 C.3       1 <0>        -0.1140
      3 C3         -1.4333   -0.5336    0.0129 C.3       1 <0>        -0.0288
      4 C4         -1.4133   -2.0590    0.1302 C.3       1 <0>        -0.0630
      5 C5         -0.8330   -2.4526    1.4642 C.2       1 <0>         0.1105
      6 N1         -0.4590   -1.5317    2.2818 N.2       1 <0>        -0.4185
      7 C6          0.1062   -1.8279    3.4870 C.ar      1 <0>        -0.1886
      8 C7          0.2686   -0.8567    4.4850 C.ar      1 <0>         0.5310
      9 N2          0.8229   -1.2194    5.6398 N.ar      1 <0>        -0.6495
     10 C8          1.2147   -2.4672    5.8515 C.ar      1 <0>         0.6349
     11 N3          1.0807   -3.4154    4.9320 N.ar      1 <0>        -0.6398
     12 C9          0.5422   -3.1354    3.7559 C.ar      1 <0>         0.4684
     13 N4          0.3997   -4.0927    2.7623 N.pl3     1 <0>        -0.7160
     14 C10        -0.7111   -3.9142    1.8094 C.3       1 <0>         0.1292
     15 N5          1.7824   -2.7926    7.0701 N.pl3     1 <0>        -0.8186
     16 N6         -0.1376    0.4496    4.2742 N.pl3     1 <0>        -0.8139
     17 C11        -2.1247   -0.1373   -1.2662 C.ar      1 <0>        -0.0683
     18 C12        -1.6224   -0.5660   -2.4820 C.ar      1 <0>        -0.1275
     19 C13        -2.2505   -0.2067   -3.6566 C.ar      1 <0>        -0.0641
     20 C14        -3.3951    0.5911   -3.6165 C.ar      1 <0>        -0.1118
     21 C15        -3.8966    1.0202   -2.3866 C.ar      1 <0>        -0.0826
     22 C16        -3.2621    0.6491   -1.2191 C.ar      1 <0>        -0.1222
     23 C17        -4.0731    0.9804   -4.8713 C.2       1 <0>         0.5429
     24 O1         -3.6339    0.6055   -5.9410 O.2       1 <0>        -0.5543
     25 N7         -5.1781    1.7508   -4.8293 N.am      1 <0>        -0.6754
     26 C18        -5.8499    2.1365   -6.0727 C.3       1 <0>         0.0737
     27 C19        -7.3227    2.4351   -5.7852 C.3       1 <0>        -0.0824
     28 C20        -8.0229    1.1540   -5.3274 C.3       1 <0>        -0.1770
     29 C21        -9.4735    1.4481   -5.0443 C.2       1 <0>         0.4911
     30 O2         -9.9072    2.5776   -5.1947 O.co2     1 <0>        -0.6975
     31 O3        -10.2135    0.5565   -4.6648 O.co2     1 <0>        -0.7197
     32 C22        -5.1894    3.3666   -6.6398 C.2       1 <0>         0.4983
     33 O4         -5.1762    3.5508   -7.8450 O.co2     1 <0>        -0.7013
     34 O5         -4.6682    4.1777   -5.8935 O.co2     1 <0>        -0.6986
     35 H1          1.0039    1.9031    0.0027 H         1 <0>         0.0451
     36 H2         -0.5459    1.8868   -0.8726 H         1 <0>         0.0577
     37 H3         -0.5289    1.8773    0.9072 H         1 <0>         0.0495
     38 H4          0.5123   -0.3556   -0.8948 H         1 <0>         0.0533
     39 H5          0.5293   -0.3651    0.8851 H         1 <0>         0.0797
     40 H6         -1.9701   -0.1109    0.8621 H         1 <0>         0.0842
     41 H7         -2.4301   -2.4431    0.0488 H         1 <0>         0.0904
     42 H8         -0.8018   -2.4769   -0.6695 H         1 <0>         0.0866
     43 H9          1.0040   -4.8489    2.6996 H         1 <0>         0.4134
     44 H10        -1.6412   -4.2608    2.2599 H         1 <0>         0.0752
     45 H11        -0.5084   -4.4865    0.9042 H         1 <0>         0.1033
     46 H12         1.8882   -2.1119    7.7530 H         1 <0>         0.4138
     47 H13         2.0748   -3.7014    7.2418 H         1 <0>         0.4134
     48 H14        -0.5399    0.7019    3.4284 H         1 <0>         0.4230
     49 H15        -0.0200    1.1127    4.9723 H         1 <0>         0.4056
     50 H16        -0.7365   -1.1830   -2.5116 H         1 <0>         0.1205
     51 H17        -1.8573   -0.5417   -4.6050 H         1 <0>         0.1317
     52 H18        -4.7818    1.6377   -2.3488 H         1 <0>         0.1280
     53 H19        -3.6516    0.9768   -0.2666 H         1 <0>         0.1225
     54 H20        -5.5286    2.0499   -3.9757 H         1 <0>         0.3913
     55 H21        -5.7783    1.3211   -6.7924 H         1 <0>         0.0777
     56 H22        -7.3943    3.1885   -5.0007 H         1 <0>         0.0601
     57 H23        -7.8016    2.8071   -6.6910 H         1 <0>         0.0725
     58 H24        -7.9513    0.4007   -6.1119 H         1 <0>         0.0527
     59 H25        -7.5440    0.7821   -4.4216 H         1 <0>         0.0512
@<TRIPOS>BOND
     1    1    2 1
     2    1   35 1
     3    1   36 1
     4    1   37 1
     5    2    3 1
     6    2   38 1
     7    2   39 1
     8    3    4 1
     9    3   17 1
    10    3   40 1
    11    4    5 1
    12    4   41 1
    13    4   42 1
    14    5   14 1
    15    5    6 2
    16    6    7 1
    17    7   12 ar
    18    7    8 ar
    19    8    9 ar
    20    8   16 1
    21    9   10 ar
    22   10   11 ar
    23   10   15 1
    24   11   12 ar
    25   12   13 1
    26   13   14 1
    27   13   43 1
    28   14   44 1
    29   14   45 1
    30   15   46 1
    31   15   47 1
    32   16   48 1
    33   16   49 1
    34   17   22 ar
    35   17   18 ar
    36   18   19 ar
    37   18   50 1
    38   19   20 ar
    39   19   51 1
    40   20   21 ar
    41   20   23 1
    42   21   22 ar
    43   21   52 1
    44   22   53 1
    45   23   24 2
    46   23   25 am
    47   25   26 1
    48   25   54 1
    49   26   27 1
    50   26   32 1
    51   26   55 1
    52   27   28 1
    53   27   56 1
    54   27   57 1
    55   28   29 1
    56   28   58 1
    57   28   59 1
    58   29   30 2
    59   29   31 1
    60   32   33 2
    61   32   34 1
@<TRIPOS>MOLECULE
CHEMBL9824__3
   60    62     0     0     0
SMALL
USER_CHARGES

@<TRIPOS>ATOM
      1 C1         -0.0187    1.5258    0.0104 C.3       1 <0>        -0.1515
      2 C2          0.0021   -0.0041    0.0020 C.3       1 <0>        -0.1154
      3 C3          0.7182   -0.4975   -1.2568 C.3       1 <0>        -0.0277
      4 C4          0.6303   -2.0233   -1.3286 C.3       1 <0>        -0.0789
      5 C5         -0.8088   -2.4360   -1.5010 C.2       1 <0>         0.1838
      6 N1         -1.7182   -1.5276   -1.5675 N.2       1 <0>        -0.4480
      7 C6         -3.0397   -1.8421   -1.6866 C.ar      1 <0>        -0.1232
      8 C7         -4.0003   -0.8788   -2.0255 C.ar      1 <0>         0.5290
      9 N2         -5.2718   -1.2593   -2.1302 N.ar      1 <0>        -0.5931
     10 C8         -5.6314   -2.5173   -1.9218 C.ar      1 <0>         0.6733
     11 N3         -4.7534   -3.4586   -1.5971 N.ar      1 <0>        -0.5699
     12 C9         -3.4701   -3.1611   -1.4697 C.ar      1 <0>         0.4956
     13 N4         -2.5235   -4.1110   -1.1154 N.pl3     1 <0>        -0.6777
     14 C10        -1.1460   -3.9013   -1.5972 C.3       1 <0>         0.1042
     15 N5         -6.9654   -2.8611   -2.0460 N.pl3     1 <0>        -0.7941
     16 N6         -3.6351    0.4380   -2.2458 N.pl3     1 <0>        -0.7873
     17 C11         2.1652   -0.0794   -1.2080 C.ar      1 <0>        -0.0817
     18 C12         2.9739   -0.5164   -0.1738 C.ar      1 <0>        -0.1267
     19 C13         4.2994   -0.1373   -0.1232 C.ar      1 <0>        -0.0632
     20 C14         4.8242    0.6888   -1.1183 C.ar      1 <0>        -0.1017
     21 C15         4.0030    1.1261   -2.1588 C.ar      1 <0>        -0.0822
     22 C16         2.6807    0.7351   -2.2006 C.ar      1 <0>        -0.1200
     23 C17         6.2437    1.0994   -1.0702 C.2       1 <0>         0.5383
     24 O1          6.9565    0.7174   -0.1627 O.2       1 <0>        -0.5504
     25 N7          6.7475    1.8972   -2.0326 N.am      1 <0>        -0.6724
     26 C18         8.1541    2.3040   -1.9849 C.3       1 <0>         0.0728
     27 C19         8.6364    2.6384   -3.3978 C.3       1 <0>        -0.0832
     28 C20         8.6098    1.3737   -4.2585 C.3       1 <0>        -0.1764
     29 C21         9.0849    1.7032   -5.6502 C.2       1 <0>         0.4902
     30 O2          9.4143    2.8437   -5.9279 O.co2     1 <0>        -0.6958
     31 O3          9.1400    0.8291   -6.4984 O.co2     1 <0>        -0.7192
     32 C22         8.2960    3.5191   -1.1049 C.2       1 <0>         0.4981
     33 O4          9.3303    3.7070   -0.4873 O.co2     1 <0>        -0.6975
     34 O5          7.3766    4.3142   -1.0105 O.co2     1 <0>        -0.6999
     35 H1          1.0039    1.9031    0.0027 H         1 <0>         0.0641
     36 H2         -0.5459    1.8868   -0.8726 H         1 <0>         0.0471
     37 H3         -0.5289    1.8773    0.9072 H         1 <0>         0.0478
     38 H4          0.5293   -0.3651    0.8851 H         1 <0>         0.0598
     39 H5         -1.0205   -0.3814    0.0098 H         1 <0>         0.0710
     40 H6          0.2444   -0.0644   -2.1377 H         1 <0>         0.0844
     41 H7          1.2150   -2.3814   -2.1759 H         1 <0>         0.1083
     42 H8          1.0239   -2.4536   -0.4077 H         1 <0>         0.1040
     43 H9         -2.7594   -4.8819   -0.5760 H         1 <0>         0.4324
     44 H10        -1.0659   -4.2260   -2.6347 H         1 <0>         0.1056
     45 H11        -0.4543   -4.4754   -0.9806 H         1 <0>         0.1311
     46 H12        -7.6204   -2.1857   -2.2823 H         1 <0>         0.4275
     47 H13        -7.2460   -3.7775   -1.8969 H         1 <0>         0.4446
     48 H14        -2.7055    0.7033   -2.1662 H         1 <0>         0.4512
     49 H15        -4.3088    1.0955   -2.4797 H         1 <0>         0.4210
     50 H16         2.5664   -1.1553    0.5957 H         1 <0>         0.1201
     51 H17         4.9295   -0.4788    0.6847 H         1 <0>         0.1346
     52 H18         4.4030    1.7655   -2.9318 H         1 <0>         0.1306
     53 H19         2.0453    1.0691   -3.0075 H         1 <0>         0.1217
     54 H20         6.1788    2.2020   -2.7568 H         1 <0>         0.3908
     55 H21         8.7543    1.4895   -1.5793 H         1 <0>         0.0791
     56 H22         7.9811    3.3906   -3.8370 H         1 <0>         0.0602
     57 H23         9.6544    3.0255   -3.3521 H         1 <0>         0.0743
     58 H24         9.2652    0.6215   -3.8194 H         1 <0>         0.0531
     59 H25         7.5919    0.9867   -4.3042 H         1 <0>         0.0492
     60 H26        -5.9474   -0.6033   -2.3632 H         1 <0>         0.4379
@<TRIPOS>BOND
     1    1    2 1
     2    1   35 1
     3    1   36 1
     4    1   37 1
     5    2    3 1
     6    2   38 1
     7    2   39 1
     8    3    4 1
     9    3   17 1
    10    3   40 1
    11    4    5 1
    12    4   41 1
    13    4   42 1
    14    5   14 1
    15    5    6 2
    16    6    7 1
    17    7   12 ar
    18    7    8 ar
    19    8    9 ar
    20    8   16 1
    21    9   10 ar
    22    9   60 1
    23   10   11 ar
    24   10   15 1
    25   11   12 ar
    26   12   13 1
    27   13   14 1
    28   13   43 1
    29   14   44 1
    30   14   45 1
    31   15   46 1
    32   15   47 1
    33   16   48 1
    34   16   49 1
    35   17   22 ar
    36   17   18 ar
    37   18   19 ar
    38   18   50 1
    39   19   20 ar
    40   19   51 1
    41   20   21 ar
    42   20   23 1
    43   21   22 ar
    44   21   52 1
    45   22   53 1
    46   23   24 2
    47   23   25 am
    48   25   26 1
    49   25   54 1
    50   26   27 1
    51   26   32 1
    52   26   55 1
    53   27   28 1
    54   27   56 1
    55   27   57 1
    56   28   29 1
    57   28   58 1
    58   28   59 1
    59   29   30 2
    60   29   31 1
    61   32   33 2
    62   32   34 1
@<TRIPOS>MOLECULE
CHEMBL9824__4
   59    61     0     0     0
SMALL
USER_CHARGES

@<TRIPOS>ATOM
      1 C1          0.2588    0.8535   -0.0806 C.3       1 <0>        -0.1515
      2 C2          0.1180   -0.6688   -0.1422 C.3       1 <0>        -0.1202
      3 C3         -1.3564   -1.0509    0.0037 C.3       1 <0>        -0.0319
      4 C4         -2.1436   -0.5123   -1.1926 C.3       1 <0>        -0.0575
      5 C5         -3.6168   -0.7333   -0.9651 C.2       1 <0>         0.0886
      6 N1         -4.0146   -1.1893    0.1708 N.2       1 <0>        -0.4024
      7 C6         -5.3308   -1.4434    0.4213 C.ar      1 <0>        -0.1881
      8 C7         -5.8028   -1.6807    1.7200 C.ar      1 <0>         0.5362
      9 N2         -7.1021   -1.9156    1.8904 N.ar      1 <0>        -0.6442
     10 C8         -7.9385   -1.9263    0.8629 C.ar      1 <0>         0.6404
     11 N3         -7.5314   -1.7085   -0.3817 N.ar      1 <0>        -0.6400
     12 C9         -6.2545   -1.4706   -0.6360 C.ar      1 <0>         0.4712
     13 N4         -5.7857   -1.2552   -1.9235 N.pl3     1 <0>        -0.7167
     14 C10        -4.5874   -0.4090   -2.0710 C.3       1 <0>         0.1362
     15 N5         -9.2796   -2.1728    1.0946 N.pl3     1 <0>        -0.8146
     16 N6         -4.9375   -1.6714    2.8003 N.pl3     1 <0>        -0.8148
     17 C11        -1.4837   -2.5517    0.0542 C.ar      1 <0>        -0.0546
     18 C12        -1.0368   -3.3170   -1.0083 C.ar      1 <0>        -0.1326
     19 C13        -1.1504   -4.6913   -0.9684 C.ar      1 <0>        -0.0681
     20 C14        -1.7176   -5.3094    0.1470 C.ar      1 <0>        -0.1117
     21 C15        -2.1664   -4.5316    1.2155 C.ar      1 <0>        -0.0873
     22 C16        -2.0418   -3.1585    1.1653 C.ar      1 <0>        -0.0971
     23 C17        -1.8430   -6.7817    0.1964 C.2       1 <0>         0.5483
     24 O1         -1.4516   -7.4566   -0.7358 O.2       1 <0>        -0.5584
     25 N7         -2.3912   -7.3756    1.2749 N.am      1 <0>        -0.6748
     26 C18        -2.5154   -8.8345    1.3238 C.3       1 <0>         0.0731
     27 C19        -3.6593   -9.2177    2.2649 C.3       1 <0>        -0.0803
     28 C20        -4.9846   -8.7178    1.6866 C.3       1 <0>        -0.1767
     29 C21        -6.1113   -9.0952    2.6135 C.2       1 <0>         0.4918
     30 O2         -5.8761   -9.7073    3.6414 O.co2     1 <0>        -0.6975
     31 O3         -7.2581   -8.7885    2.3355 O.co2     1 <0>        -0.7193
     32 C22        -1.2275   -9.4316    1.8295 C.2       1 <0>         0.4976
     33 O4         -0.3612   -8.7095    2.2927 O.co2     1 <0>        -0.6976
     34 O5         -1.0518  -10.6369    1.7755 O.co2     1 <0>        -0.7014
     35 H1          1.3155    1.1205   -0.0703 H         1 <0>         0.0502
     36 H2         -0.2199    1.2982   -0.9530 H         1 <0>         0.0540
     37 H3         -0.2190    1.2262    0.8255 H         1 <0>         0.0535
     38 H4          0.4940   -1.0300   -1.0994 H         1 <0>         0.0641
     39 H5          0.6920   -1.1198    0.6673 H         1 <0>         0.0663
     40 H6         -1.7538   -0.6214    0.9233 H         1 <0>         0.0864
     41 H7         -1.9492    0.5543   -1.3049 H         1 <0>         0.0852
     42 H8         -1.8331   -1.0354   -2.0971 H         1 <0>         0.0820
     43 H9         -6.2297   -1.6428   -2.6939 H         1 <0>         0.4132
     44 H10        -4.8699    0.6421   -2.0110 H         1 <0>         0.0678
     45 H11        -4.1197   -0.6067   -3.0356 H         1 <0>         0.0958
     46 H12        -9.5941   -2.3343    1.9979 H         1 <0>         0.4157
     47 H13        -9.9057   -2.1842    0.3538 H         1 <0>         0.4132
     48 H14        -4.0191   -1.3819    2.6836 H         1 <0>         0.4169
     49 H15        -5.2495   -1.9544    3.6741 H         1 <0>         0.4080
     50 H16        -0.5984   -2.8374   -1.8710 H         1 <0>         0.1177
     51 H17        -0.8015   -5.2875   -1.7986 H         1 <0>         0.1285
     52 H18        -2.6063   -5.0038    2.0815 H         1 <0>         0.1220
     53 H19        -2.3846   -2.5557    1.9933 H         1 <0>         0.1165
     54 H20        -2.7035   -6.8371    2.0188 H         1 <0>         0.3891
     55 H21        -2.7244   -9.2151    0.3241 H         1 <0>         0.0769
     56 H22        -3.6950  -10.3020    2.3707 H         1 <0>         0.0768
     57 H23        -3.4943   -8.7626    3.2415 H         1 <0>         0.0559
     58 H24        -4.9489   -7.6335    1.5808 H         1 <0>         0.0487
     59 H25        -5.1496   -9.1729    0.7100 H         1 <0>         0.0515
@<TRIPOS>BOND
     1    1    2 1
     2    1   35 1
     3    1   36 1
     4    1   37 1
     5    2    3 1
     6    2   38 1
     7    2   39 1
     8    3    4 1
     9    3   17 1
    10    3   40 1
    11    4    5 1
    12    4   41 1
    13    4   42 1
    14    5   14 1
    15    5    6 2
    16    6    7 1
    17    7   12 ar
    18    7    8 ar
    19    8    9 ar
    20    8   16 1
    21    9   10 ar
    22   10   11 ar
    23   10   15 1
    24   11   12 ar
    25   12   13 1
    26   13   14 1
    27   13   43 1
    28   14   44 1
    29   14   45 1
    30   15   46 1
    31   15   47 1
    32   16   48 1
    33   16   49 1
    34   17   22 ar
    35   17   18 ar
    36   18   19 ar
    37   18   50 1
    38   19   20 ar
    39   19   51 1
    40   20   21 ar
    41   20   23 1
    42   21   22 ar
    43   21   52 1
    44   22   53 1
    45   23   24 2
    46   23   25 am
    47   25   26 1
    48   25   54 1
    49   26   27 1
    50   26   32 1
    51   26   55 1
    52   27   28 1
    53   27   56 1
    54   27   57 1
    55   28   29 1
    56   28   58 1
    57   28   59 1
    58   29   30 2
    59   29   31 1
    60   32   33 2
    61   32   34 1
@<TRIPOS>MOLECULE
CHEMBL9824__5
   60    62     0     0     0
SMALL
USER_CHARGES

@<TRIPOS>ATOM
      1 C1         -0.0680    0.8465    0.2829 C.3       1 <0>        -0.1536
      2 C2          0.0794   -0.6715    0.1612 C.3       1 <0>        -0.1226
      3 C3          0.6958   -1.0169   -1.1959 C.3       1 <0>        -0.0313
      4 C4          2.1168   -0.4546   -1.2685 C.3       1 <0>        -0.0738
      5 C5          2.6595   -0.6392   -2.6623 C.2       1 <0>         0.1641
      6 N1          1.8816   -1.0889   -3.5838 N.2       1 <0>        -0.4318
      7 C6          2.3263   -1.3107   -4.8537 C.ar      1 <0>        -0.1247
      8 C7          1.4412   -1.5405   -5.9164 C.ar      1 <0>         0.5362
      9 N2          1.9465   -1.7432   -7.1313 N.ar      1 <0>        -0.5915
     10 C8          3.2545   -1.7292   -7.3419 C.ar      1 <0>         0.6784
     11 N3          4.1256   -1.5175   -6.3628 N.ar      1 <0>        -0.5710
     12 C9          3.7040   -1.3110   -5.1253 C.ar      1 <0>         0.4999
     13 N4          4.5814   -1.1030   -4.0714 N.pl3     1 <0>        -0.6801
     14 C10         4.0972   -0.2867   -2.9432 C.3       1 <0>         0.1109
     15 N5          3.7279   -1.9427   -8.6239 N.pl3     1 <0>        -0.7891
     16 N6          0.0730   -1.5566   -5.7071 N.pl3     1 <0>        -0.7884
     17 C11         0.7390   -2.5142   -1.3615 C.ar      1 <0>        -0.0648
     18 C12         1.4478   -3.2868   -0.4588 C.ar      1 <0>        -0.1294
     19 C13         1.4914   -4.6580   -0.6047 C.ar      1 <0>        -0.0639
     20 C14         0.8184   -5.2655   -1.6659 C.ar      1 <0>        -0.1038
     21 C15         0.1053   -4.4802   -2.5730 C.ar      1 <0>        -0.0918
     22 C16         0.0651   -3.1106   -2.4124 C.ar      1 <0>        -0.1055
     23 C17         0.8612   -6.7343   -1.8287 C.2       1 <0>         0.5426
     24 O1          1.4835   -7.4156   -1.0374 O.2       1 <0>        -0.5502
     25 N7          0.2104   -7.3179   -2.8545 N.am      1 <0>        -0.6732
     26 C18         0.2528   -8.7733   -3.0158 C.3       1 <0>         0.0718
     27 C19         0.0154   -9.1308   -4.4844 C.3       1 <0>        -0.0819
     28 C20         1.1707   -8.5957   -5.3327 C.3       1 <0>        -0.1745
     29 C21         0.9369   -8.9479   -6.7792 C.2       1 <0>         0.4903
     30 O2         -0.0613   -9.5692   -7.1017 O.co2     1 <0>        -0.6913
     31 O3          1.7459   -8.6114   -7.6270 O.co2     1 <0>        -0.7237
     32 C22        -0.8195   -9.4045   -2.1655 C.2       1 <0>         0.4959
     33 O4         -1.6647   -8.7059   -1.6325 O.co2     1 <0>        -0.6978
     34 O5         -0.8417  -10.6136   -2.0106 O.co2     1 <0>        -0.6954
     35 H1          0.9199    1.3061    0.3136 H         1 <0>         0.0542
     36 H2         -0.6197    1.2280   -0.5762 H         1 <0>         0.0534
     37 H3         -0.6091    1.0868    1.1981 H         1 <0>         0.0556
     38 H4          0.7261   -1.0388    0.9581 H         1 <0>         0.0680
     39 H5         -0.9014   -1.1396    0.2445 H         1 <0>         0.0707
     40 H6          0.0913   -0.5807   -1.9911 H         1 <0>         0.0867
     41 H7          2.1004    0.6072   -1.0227 H         1 <0>         0.1029
     42 H8          2.7532   -0.9822   -0.5580 H         1 <0>         0.0991
     43 H9          5.4766   -1.4767   -4.0785 H         1 <0>         0.4323
     44 H10         4.1700    0.7709   -3.1967 H         1 <0>         0.0987
     45 H11         4.7019   -0.4929   -2.0600 H         1 <0>         0.1238
     46 H12         3.1053   -2.0993   -9.3511 H         1 <0>         0.4295
     47 H13         4.6825   -1.9358   -8.7958 H         1 <0>         0.4446
     48 H14        -0.2894   -1.2899   -4.8478 H         1 <0>         0.4456
     49 H15        -0.5234   -1.8348   -6.4198 H         1 <0>         0.4235
     50 H16         1.9684   -2.8155    0.3617 H         1 <0>         0.1217
     51 H17         2.0453   -5.2599    0.1005 H         1 <0>         0.1331
     52 H18        -0.4175   -4.9441   -3.3963 H         1 <0>         0.1226
     53 H19        -0.4900   -2.5022   -3.1111 H         1 <0>         0.1116
     54 H20        -0.2862   -6.7742   -3.4860 H         1 <0>         0.3864
     55 H21         1.2290   -9.1451   -2.7046 H         1 <0>         0.0788
     56 H22        -0.0416  -10.2142   -4.5900 H         1 <0>         0.0799
     57 H23        -0.9199   -8.6834   -4.8206 H         1 <0>         0.0558
     58 H24         1.2277   -7.5124   -5.2271 H         1 <0>         0.0434
     59 H25         2.1060   -9.0432   -4.9965 H         1 <0>         0.0530
     60 H26         1.3460   -1.9044   -7.8758 H         1 <0>         0.4402
@<TRIPOS>BOND
     1    1    2 1
     2    1   35 1
     3    1   36 1
     4    1   37 1
     5    2    3 1
     6    2   38 1
     7    2   39 1
     8    3    4 1
     9    3   17 1
    10    3   40 1
    11    4    5 1
    12    4   41 1
    13    4   42 1
    14    5   14 1
    15    5    6 2
    16    6    7 1
    17    7   12 ar
    18    7    8 ar
    19    8    9 ar
    20    8   16 1
    21    9   10 ar
    22    9   60 1
    23   10   11 ar
    24   10   15 1
    25   11   12 ar
    26   12   13 1
    27   13   14 1
    28   13   43 1
    29   14   44 1
    30   14   45 1
    31   15   46 1
    32   15   47 1
    33   16   48 1
    34   16   49 1
    35   17   22 ar
    36   17   18 ar
    37   18   19 ar
    38   18   50 1
    39   19   20 ar
    40   19   51 1
    41   20   21 ar
    42   20   23 1
    43   21   22 ar
    44   21   52 1
    45   22   53 1
    46   23   24 2
    47   23   25 am
    48   25   26 1
    49   25   54 1
    50   26   27 1
    51   26   32 1
    52   26   55 1
    53   27   28 1
    54   27   56 1
    55   27   57 1
    56   28   29 1
    57   28   58 1
    58   28   59 1
    59   29   30 2
    60   29   31 1
    61   32   33 2
    62   32   34 1
@<TRIPOS>MOLECULE
CHEMBL9824__6
   59    61     0     0     0
SMALL
USER_CHARGES

@<TRIPOS>ATOM
      1 C1          0.2588    0.8535   -0.0806 C.3       1 <0>        -0.1517
      2 C2          0.1180   -0.6688   -0.1422 C.3       1 <0>        -0.1200
      3 C3         -1.3564   -1.0509    0.0037 C.3       1 <0>        -0.0322
      4 C4         -2.1436   -0.5123   -1.1926 C.3       1 <0>        -0.0579
      5 C5         -3.6168   -0.7333   -0.9651 C.2       1 <0>         0.0901
      6 N1         -4.0146   -1.1893    0.1708 N.2       1 <0>        -0.4032
      7 C6         -5.3308   -1.4434    0.4213 C.ar      1 <0>        -0.1863
      8 C7         -5.8028   -1.6807    1.7200 C.ar      1 <0>         0.5361
      9 N2         -7.1021   -1.9156    1.8904 N.ar      1 <0>        -0.6456
     10 C8         -7.9385   -1.9263    0.8629 C.ar      1 <0>         0.6390
     11 N3         -7.5314   -1.7085   -0.3817 N.ar      1 <0>        -0.6398
     12 C9         -6.2545   -1.4706   -0.6360 C.ar      1 <0>         0.4716
     13 N4         -5.7857   -1.2552   -1.9235 N.pl3     1 <0>        -0.7161
     14 C10        -4.5874   -0.4090   -2.0710 C.3       1 <0>         0.1357
     15 N5         -9.2796   -2.1728    1.0946 N.pl3     1 <0>        -0.8164
     16 N6         -4.9375   -1.6714    2.8003 N.pl3     1 <0>        -0.8144
     17 C11        -1.4837   -2.5517    0.0542 C.ar      1 <0>        -0.0541
     18 C12        -1.0368   -3.3170   -1.0083 C.ar      1 <0>        -0.1327
     19 C13        -1.1504   -4.6913   -0.9684 C.ar      1 <0>        -0.0679
     20 C14        -1.7176   -5.3094    0.1470 C.ar      1 <0>        -0.1134
     21 C15        -2.1664   -4.5316    1.2155 C.ar      1 <0>        -0.0868
     22 C16        -2.0418   -3.1585    1.1653 C.ar      1 <0>        -0.0971
     23 C17        -1.8430   -6.7817    0.1964 C.2       1 <0>         0.5435
     24 O1         -1.4516   -7.4566   -0.7358 O.2       1 <0>        -0.5560
     25 N7         -2.3912   -7.3756    1.2749 N.am      1 <0>        -0.6754
     26 C18        -2.5154   -8.8345    1.3238 C.3       1 <0>         0.0740
     27 C19        -2.5580   -9.2941    2.7826 C.3       1 <0>        -0.0819
     28 C20        -1.2208   -8.9789    3.4559 C.3       1 <0>        -0.1768
     29 C21        -1.2628   -9.4316    4.8927 C.2       1 <0>         0.4915
     30 O2         -2.2690   -9.9576    5.3369 O.co2     1 <0>        -0.6975
     31 O3         -0.2905   -9.2719    5.6108 O.co2     1 <0>        -0.7196
     32 C22        -3.7843   -9.2543    0.6276 C.2       1 <0>         0.4982
     33 O4         -3.8448  -10.3375    0.0714 O.co2     1 <0>        -0.7019
     34 O5         -4.7504   -8.5106    0.6206 O.co2     1 <0>        -0.6984
     35 H1          1.3155    1.1205   -0.0703 H         1 <0>         0.0504
     36 H2         -0.2199    1.2982   -0.9530 H         1 <0>         0.0541
     37 H3         -0.2190    1.2262    0.8255 H         1 <0>         0.0537
     38 H4          0.4940   -1.0300   -1.0994 H         1 <0>         0.0640
     39 H5          0.6920   -1.1198    0.6673 H         1 <0>         0.0663
     40 H6         -1.7538   -0.6214    0.9233 H         1 <0>         0.0867
     41 H7         -1.9492    0.5543   -1.3049 H         1 <0>         0.0857
     42 H8         -1.8331   -1.0354   -2.0971 H         1 <0>         0.0823
     43 H9         -6.2297   -1.6428   -2.6939 H         1 <0>         0.4137
     44 H10        -4.8699    0.6421   -2.0110 H         1 <0>         0.0683
     45 H11        -4.1197   -0.6067   -3.0356 H         1 <0>         0.0963
     46 H12        -9.5941   -2.3343    1.9979 H         1 <0>         0.4146
     47 H13        -9.9057   -2.1842    0.3538 H         1 <0>         0.4130
     48 H14        -4.0191   -1.3819    2.6836 H         1 <0>         0.4173
     49 H15        -5.2495   -1.9544    3.6741 H         1 <0>         0.4078
     50 H16        -0.5984   -2.8374   -1.8710 H         1 <0>         0.1180
     51 H17        -0.8015   -5.2875   -1.7986 H         1 <0>         0.1288
     52 H18        -2.6063   -5.0038    2.0815 H         1 <0>         0.1228
     53 H19        -2.3846   -2.5557    1.9933 H         1 <0>         0.1169
     54 H20        -2.7035   -6.8371    2.0188 H         1 <0>         0.3905
     55 H21        -1.6596   -9.2890    0.8246 H         1 <0>         0.0772
     56 H22        -3.3597   -8.7719    3.3047 H         1 <0>         0.0593
     57 H23        -2.7394  -10.3683    2.8199 H         1 <0>         0.0722
     58 H24        -0.4191   -9.5011    2.9337 H         1 <0>         0.0526
     59 H25        -1.0394   -7.9048    3.4185 H         1 <0>         0.0509
@<TRIPOS>BOND
     1    1    2 1
     2    1   35 1
     3    1   36 1
     4    1   37 1
     5    2    3 1
     6    2   38 1
     7    2   39 1
     8    3    4 1
     9    3   17 1
    10    3   40 1
    11    4    5 1
    12    4   41 1
    13    4   42 1
    14    5   14 1
    15    5    6 2
    16    6    7 1
    17    7   12 ar
    18    7    8 ar
    19    8    9 ar
    20    8   16 1
    21    9   10 ar
    22   10   11 ar
    23   10   15 1
    24   11   12 ar
    25   12   13 1
    26   13   14 1
    27   13   43 1
    28   14   44 1
    29   14   45 1
    30   15   46 1
    31   15   47 1
    32   16   48 1
    33   16   49 1
    34   17   22 ar
    35   17   18 ar
    36   18   19 ar
    37   18   50 1
    38   19   20 ar
    39   19   51 1
    40   20   21 ar
    41   20   23 1
    42   21   22 ar
    43   21   52 1
    44   22   53 1
    45   23   24 2
    46   23   25 am
    47   25   26 1
    48   25   54 1
    49   26   27 1
    50   26   32 1
    51   26   55 1
    52   27   28 1
    53   27   56 1
    54   27   57 1
    55   28   29 1
    56   28   58 1
    57   28   59 1
    58   29   30 2
    59   29   31 1
    60   32   33 2
    61   32   34 1
@<TRIPOS>MOLECULE
CHEMBL9824__7
   60    62     0     0     0
SMALL
USER_CHARGES

@<TRIPOS>ATOM
      1 C1         -0.0680    0.8465    0.2829 C.3       1 <0>        -0.1538
      2 C2          0.0794   -0.6715    0.1612 C.3       1 <0>        -0.1224
      3 C3          0.6958   -1.0169   -1.1959 C.3       1 <0>        -0.0315
      4 C4          2.1168   -0.4546   -1.2685 C.3       1 <0>        -0.0742
      5 C5          2.6595   -0.6392   -2.6623 C.2       1 <0>         0.1654
      6 N1          1.8816   -1.0889   -3.5838 N.2       1 <0>        -0.4325
      7 C6          2.3263   -1.3107   -4.8537 C.ar      1 <0>        -0.1224
      8 C7          1.4412   -1.5405   -5.9164 C.ar      1 <0>         0.5354
      9 N2          1.9465   -1.7432   -7.1313 N.ar      1 <0>        -0.5915
     10 C8          3.2545   -1.7292   -7.3419 C.ar      1 <0>         0.6771
     11 N3          4.1256   -1.5175   -6.3628 N.ar      1 <0>        -0.5702
     12 C9          3.7040   -1.3110   -5.1253 C.ar      1 <0>         0.4997
     13 N4          4.5814   -1.1030   -4.0714 N.pl3     1 <0>        -0.6791
     14 C10         4.0972   -0.2867   -2.9432 C.3       1 <0>         0.1104
     15 N5          3.7279   -1.9427   -8.6239 N.pl3     1 <0>        -0.7914
     16 N6          0.0730   -1.5566   -5.7071 N.pl3     1 <0>        -0.7880
     17 C11         0.7390   -2.5142   -1.3615 C.ar      1 <0>        -0.0643
     18 C12         1.4478   -3.2868   -0.4588 C.ar      1 <0>        -0.1295
     19 C13         1.4914   -4.6580   -0.6047 C.ar      1 <0>        -0.0636
     20 C14         0.8184   -5.2655   -1.6659 C.ar      1 <0>        -0.1055
     21 C15         0.1053   -4.4802   -2.5730 C.ar      1 <0>        -0.0913
     22 C16         0.0651   -3.1106   -2.4124 C.ar      1 <0>        -0.1056
     23 C17         0.8612   -6.7343   -1.8287 C.2       1 <0>         0.5380
     24 O1          1.4835   -7.4156   -1.0374 O.2       1 <0>        -0.5481
     25 N7          0.2104   -7.3179   -2.8545 N.am      1 <0>        -0.6736
     26 C18         0.2528   -8.7733   -3.0158 C.3       1 <0>         0.0726
     27 C19        -0.9821   -9.2367   -3.7912 C.3       1 <0>        -0.0815
     28 C20        -2.2384   -8.9576   -2.9637 C.3       1 <0>        -0.1773
     29 C21        -3.4547   -9.4141   -3.7275 C.2       1 <0>         0.4903
     30 O2         -3.3284   -9.9160   -4.8314 O.co2     1 <0>        -0.6974
     31 O3         -4.5649   -9.2813   -3.2415 O.co2     1 <0>        -0.7163
     32 C22         1.4964   -9.1586   -3.7748 C.2       1 <0>         0.5000
     33 O4          2.0251  -10.2381   -3.5709 O.co2     1 <0>        -0.6943
     34 O5          1.9737   -8.3908   -4.5928 O.co2     1 <0>        -0.7066
     35 H1          0.9199    1.3061    0.3136 H         1 <0>         0.0542
     36 H2         -0.6197    1.2280   -0.5762 H         1 <0>         0.0536
     37 H3         -0.6091    1.0868    1.1981 H         1 <0>         0.0558
     38 H4          0.7261   -1.0388    0.9581 H         1 <0>         0.0680
     39 H5         -0.9014   -1.1396    0.2445 H         1 <0>         0.0707
     40 H6          0.0913   -0.5807   -1.9911 H         1 <0>         0.0869
     41 H7          2.1004    0.6072   -1.0227 H         1 <0>         0.1033
     42 H8          2.7532   -0.9822   -0.5580 H         1 <0>         0.0994
     43 H9          5.4766   -1.4767   -4.0785 H         1 <0>         0.4327
     44 H10         4.1700    0.7709   -3.1967 H         1 <0>         0.0992
     45 H11         4.7019   -0.4929   -2.0600 H         1 <0>         0.1244
     46 H12         3.1053   -2.0993   -9.3511 H         1 <0>         0.4283
     47 H13         4.6825   -1.9358   -8.7958 H         1 <0>         0.4444
     48 H14        -0.2894   -1.2899   -4.8478 H         1 <0>         0.4460
     49 H15        -0.5234   -1.8348   -6.4198 H         1 <0>         0.4233
     50 H16         1.9684   -2.8155    0.3617 H         1 <0>         0.1220
     51 H17         2.0453   -5.2599    0.1005 H         1 <0>         0.1334
     52 H18        -0.4175   -4.9441   -3.3963 H         1 <0>         0.1233
     53 H19        -0.4900   -2.5022   -3.1111 H         1 <0>         0.1120
     54 H20        -0.2862   -6.7742   -3.4860 H         1 <0>         0.3879
     55 H21         0.2646   -9.2475   -2.0344 H         1 <0>         0.0797
     56 H22        -1.0418   -8.6963   -4.7359 H         1 <0>         0.0575
     57 H23        -0.9071  -10.3061   -3.9885 H         1 <0>         0.0746
     58 H24        -2.1786   -9.4981   -2.0190 H         1 <0>         0.0544
     59 H25        -2.3133   -7.8883   -2.7664 H         1 <0>         0.0486
     60 H26         1.3460   -1.9044   -7.8758 H         1 <0>         0.4393
@<TRIPOS>BOND
     1    1    2 1
     2    1   35 1
     3    1   36 1
     4    1   37 1
     5    2    3 1
     6    2   38 1
     7    2   39 1
     8    3    4 1
     9    3   17 1
    10    3   40 1
    11    4    5 1
    12    4   41 1
    13    4   42 1
    14    5   14 1
    15    5    6 2
    16    6    7 1
    17    7   12 ar
    18    7    8 ar
    19    8    9 ar
    20    8   16 1
    21    9   10 ar
    22    9   60 1
    23   10   11 ar
    24   10   15 1
    25   11   12 ar
    26   12   13 1
    27   13   14 1
    28   13   43 1
    29   14   44 1
    30   14   45 1
    31   15   46 1
    32   15   47 1
    33   16   48 1
    34   16   49 1
    35   17   22 ar
    36   17   18 ar
    37   18   19 ar
    38   18   50 1
    39   19   20 ar
    40   19   51 1
    41   20   21 ar
    42   20   23 1
    43   21   22 ar
    44   21   52 1
    45   22   53 1
    46   23   24 2
    47   23   25 am
    48   25   26 1
    49   25   54 1
    50   26   27 1
    51   26   32 1
    52   26   55 1
    53   27   28 1
    54   27   56 1
    55   27   57 1
    56   28   29 1
    57   28   58 1
    58   28   59 1
    59   29   30 2
    60   29   31 1
    61   32   33 2
    62   32   34 1
@<TRIPOS>MOLECULE
CHEMBL485959
   48    49     0     0     0
SMALL
USER_CHARGES

@<TRIPOS>ATOM
      1 C1         -0.0187    1.5258    0.0104 C.3       1 <0>        -0.1544
      2 C2          0.0021   -0.0041    0.0020 C.3       1 <0>        -0.1021
      3 C3         -1.4117   -0.5257    0.0127 C.ar      1 <0>         0.2543
      4 C4         -2.1209   -0.6711   -1.1803 C.ar      1 <0>        -0.1047
      5 C5         -3.4396   -1.1635   -1.1155 C.ar      1 <0>         0.5414
      6 N1         -3.9524   -1.4678    0.0710 N.ar      1 <0>        -0.5725
      7 C6         -3.2400   -1.3127    1.1770 C.ar      1 <0>         0.6660
      8 N2         -1.9953   -0.8570    1.1525 N.ar      1 <0>        -0.5669
      9 N3         -3.8103   -1.6407    2.3936 N.pl3     1 <0>        -0.7883
     10 N4         -4.1871   -1.3266   -2.2675 N.pl3     1 <0>        -0.7686
     11 C7         -1.5247   -0.3288   -2.4365 C.1       1 <0>        -0.1852
     12 C8         -1.0360   -0.0481   -3.4664 C.1       1 <0>        -0.0585
     13 C9         -0.4232    0.3038   -4.7577 C.3       1 <0>         0.0191
     14 C10        -1.4094    0.0480   -5.8680 C.ar      1 <0>        -0.0222
     15 C11        -1.4513   -1.1902   -6.4811 C.ar      1 <0>        -0.2262
     16 C12        -2.3570   -1.4294   -7.5035 C.ar      1 <0>         0.1536
     17 C13        -3.2237   -0.4224   -7.9113 C.ar      1 <0>         0.0349
     18 C14        -3.1787    0.8210   -7.2920 C.ar      1 <0>         0.1537
     19 C15        -2.2736    1.0505   -6.2668 C.ar      1 <0>        -0.2262
     20 O1         -4.0247    1.8097   -7.6874 O.3       1 <0>        -0.2984
     21 C16        -3.9225    3.0618   -7.0065 C.3       1 <0>         0.0237
     22 O2         -4.1138   -0.6530   -8.9147 O.3       1 <0>        -0.3108
     23 C17        -5.3974   -1.1572   -8.5401 C.3       1 <0>         0.0360
     24 O3         -2.3969   -2.6476   -8.1067 O.3       1 <0>        -0.2985
     25 C18        -1.4767   -3.6347   -7.6366 C.3       1 <0>         0.0237
     26 H1          1.0039    1.9031    0.0027 H         1 <0>         0.0899
     27 H2         -0.5459    1.8868   -0.8726 H         1 <0>         0.0709
     28 H3         -0.5289    1.8773    0.9072 H         1 <0>         0.0641
     29 H4          0.5123   -0.3556   -0.8948 H         1 <0>         0.1219
     30 H5          0.5293   -0.3651    0.8851 H         1 <0>         0.1062
     31 H6         -4.7189   -1.9786    2.4280 H         1 <0>         0.4462
     32 H7         -3.3017   -1.5328    3.2125 H         1 <0>         0.4313
     33 H8         -3.8044   -1.1013   -3.1299 H         1 <0>         0.4332
     34 H9         -5.0941   -1.6662   -2.2132 H         1 <0>         0.4299
     35 H10        -0.1464    1.3580   -4.7532 H         1 <0>         0.1161
     36 H11         0.4672   -0.3049   -4.9152 H         1 <0>         0.1162
     37 H12        -0.7775   -1.9722   -6.1637 H         1 <0>         0.1379
     38 H13        -2.2410    2.0151   -5.7821 H         1 <0>         0.1379
     39 H14        -4.1196    2.9151   -5.9446 H         1 <0>         0.0550
     40 H15        -2.9186    3.4657   -7.1373 H         1 <0>         0.0611
     41 H16        -4.6515    3.7599   -7.4182 H         1 <0>         0.1072
     42 H17        -6.0077   -1.2961   -9.4324 H         1 <0>         0.0971
     43 H18        -5.2775   -2.1127   -8.0294 H         1 <0>         0.0441
     44 H19        -5.8859   -0.4473   -7.8726 H         1 <0>         0.0441
     45 H20        -1.6137   -4.5572   -8.2008 H         1 <0>         0.1072
     46 H21        -0.4569   -3.2743   -7.7715 H         1 <0>         0.0611
     47 H22        -1.6577   -3.8256   -6.5788 H         1 <0>         0.0550
     48 H23        -1.5058   -0.7618    1.9845 H         1 <0>         0.4437
@<TRIPOS>BOND
     1    1    2 1
     2    1   26 1
     3    1   27 1
     4    1   28 1
     5    2    3 1
     6    2   29 1
     7    2   30 1
     8    3    8 ar
     9    3    4 ar
    10    4    5 ar
    11    4   11 1
    12    5    6 ar
    13    5   10 1
    14    6    7 ar
    15    7    8 ar
    16    7    9 1
    17    8   48 1
    18    9   31 1
    19    9   32 1
    20   10   33 1
    21   10   34 1
    22   11   12 3
    23   12   13 1
    24   13   14 1
    25   13   35 1
    26   13   36 1
    27   14   19 ar
    28   14   15 ar
    29   15   16 ar
    30   15   37 1
    31   16   17 ar
    32   16   24 1
    33   17   18 ar
    34   17   22 1
    35   18   19 ar
    36   18   20 1
    37   19   38 1
    38   20   21 1
    39   21   39 1
    40   21   40 1
    41   21   41 1
    42   22   23 1
    43   23   42 1
    44   23   43 1
    45   23   44 1
    46   24   25 1
    47   25   45 1
    48   25   46 1
    49   25   47 1
@<TRIPOS>MOLECULE
CHEMBL485959__1
   47    48     0     0     0
SMALL
USER_CHARGES

@<TRIPOS>ATOM
      1 C1         -0.0187    1.5258    0.0104 C.3       1 <0>        -0.1414
      2 C2          0.0021   -0.0041    0.0020 C.3       1 <0>        -0.0769
      3 C3          0.7074   -0.4901   -1.2379 C.ar      1 <0>         0.2761
      4 C4         -0.0081   -0.7235   -2.4129 C.ar      1 <0>        -0.2150
      5 C5          0.6990   -1.1769   -3.5444 C.ar      1 <0>         0.5034
      6 N1          2.0102   -1.3630   -3.4484 N.ar      1 <0>        -0.6299
      7 C6          2.6465   -1.1277   -2.3106 C.ar      1 <0>         0.6141
      8 N2          2.0140   -0.6959   -1.2286 N.ar      1 <0>        -0.6011
      9 N3          4.0129   -1.3341   -2.2512 N.pl3     1 <0>        -0.8155
     10 N4          0.0387   -1.4243   -4.7341 N.pl3     1 <0>        -0.8252
     11 C7         -1.4228   -0.5086   -2.4674 C.1       1 <0>        -0.0995
     12 C8         -2.5827   -0.3325   -2.5120 C.1       1 <0>        -0.1778
     13 C9         -4.0369   -0.1116   -2.5680 C.3       1 <0>         0.0383
     14 C10        -4.5423   -0.4408   -3.9490 C.ar      1 <0>        -0.0069
     15 C11        -4.5828    0.5417   -4.9206 C.ar      1 <0>        -0.2242
     16 C12        -5.0475    0.2430   -6.1924 C.ar      1 <0>         0.1521
     17 C13        -5.4724   -1.0464   -6.4899 C.ar      1 <0>         0.0269
     18 C14        -5.4297   -2.0314   -5.5104 C.ar      1 <0>         0.1516
     19 C15        -4.9587   -1.7258   -4.2425 C.ar      1 <0>        -0.2266
     20 O1         -5.8444   -3.2946   -5.7965 O.3       1 <0>        -0.3017
     21 C16        -5.7724   -4.2557   -4.7414 C.3       1 <0>         0.0240
     22 O2         -5.9296   -1.3435   -7.7368 O.3       1 <0>        -0.3123
     23 C17        -4.9654   -1.7916   -8.6916 C.3       1 <0>         0.0355
     24 O3         -5.0877    1.2105   -7.1473 O.3       1 <0>        -0.3018
     25 C18        -4.6358    2.5128   -6.7708 C.3       1 <0>         0.0239
     26 H1          1.0039    1.9031    0.0027 H         1 <0>         0.0601
     27 H2         -0.5459    1.8868   -0.8726 H         1 <0>         0.0559
     28 H3         -0.5289    1.8773    0.9072 H         1 <0>         0.0669
     29 H4          0.5293   -0.3651    0.8851 H         1 <0>         0.0895
     30 H5         -1.0205   -0.3814    0.0098 H         1 <0>         0.0859
     31 H6          4.4907   -1.6467   -3.0354 H         1 <0>         0.4151
     32 H7          4.4933   -1.1664   -1.4254 H         1 <0>         0.4170
     33 H8         -0.9195   -1.2858   -4.7948 H         1 <0>         0.4143
     34 H9          0.5337   -1.7362   -5.5078 H         1 <0>         0.4089
     35 H10        -4.5303   -0.7533   -1.8380 H         1 <0>         0.1002
     36 H11        -4.2550    0.9319   -2.3405 H         1 <0>         0.1013
     37 H12        -4.2523    1.5434   -4.6886 H         1 <0>         0.1368
     38 H13        -4.9211   -2.4917   -3.4820 H         1 <0>         0.1368
     39 H14        -4.7387   -4.3548   -4.4101 H         1 <0>         0.0567
     40 H15        -6.3914   -3.9262   -3.9069 H         1 <0>         0.0594
     41 H16        -6.1322   -5.2192   -5.1024 H         1 <0>         0.1038
     42 H17        -4.2086   -1.0200   -8.8333 H         1 <0>         0.0438
     43 H18        -4.4912   -2.7034   -8.3286 H         1 <0>         0.0437
     44 H19        -5.4610   -1.9931   -9.6413 H         1 <0>         0.0932
     45 H20        -5.2475    2.8863   -5.9495 H         1 <0>         0.0595
     46 H21        -3.5947    2.4583   -6.4529 H         1 <0>         0.0570
     47 H22        -4.7207    3.1873   -7.6229 H         1 <0>         0.1039
@<TRIPOS>BOND
     1    1    2 1
     2    1   26 1
     3    1   27 1
     4    1   28 1
     5    2    3 1
     6    2   29 1
     7    2   30 1
     8    3    8 ar
     9    3    4 ar
    10    4    5 ar
    11    4   11 1
    12    5    6 ar
    13    5   10 1
    14    6    7 ar
    15    7    8 ar
    16    7    9 1
    17    9   31 1
    18    9   32 1
    19   10   33 1
    20   10   34 1
    21   11   12 3
    22   12   13 1
    23   13   14 1
    24   13   35 1
    25   13   36 1
    26   14   19 ar
    27   14   15 ar
    28   15   16 ar
    29   15   37 1
    30   16   17 ar
    31   16   24 1
    32   17   18 ar
    33   17   22 1
    34   18   19 ar
    35   18   20 1
    36   19   38 1
    37   20   21 1
    38   21   39 1
    39   21   40 1
    40   21   41 1
    41   22   23 1
    42   23   42 1
    43   23   43 1
    44   23   44 1
    45   24   25 1
    46   25   45 1
    47   25   46 1
    48   25   47 1
@<TRIPOS>MOLECULE
CHEMBL137981
   39    41     0     0     0
SMALL
USER_CHARGES

@<TRIPOS>ATOM
      1 C1         -1.3349    0.2778    0.1056 C.3       1 <0>         0.0209
      2 O1          0.0561   -0.0167   -0.0374 O.3       1 <0>        -0.2982
      3 C2          0.6694   -0.6277    1.0126 C.ar      1 <0>         0.1438
      4 C3         -0.0552   -0.9408    2.1514 C.ar      1 <0>        -0.1870
      5 C4          0.5656   -1.5615    3.2184 C.ar      1 <0>        -0.0441
      6 C5          1.9177   -1.8731    3.1516 C.ar      1 <0>        -0.1566
      7 C6          2.6467   -1.5605    2.0116 C.ar      1 <0>        -0.1130
      8 C7          2.0228   -0.9431    0.9403 C.ar      1 <0>         0.0918
      9 O2          2.7332   -0.6411   -0.1793 O.3       1 <0>        -0.3002
     10 C8          4.1179   -0.9939   -0.1838 C.3       1 <0>         0.0237
     11 S1          2.7079   -2.6641    4.5134 S.3       1 <0>         0.1100
     12 C9          3.3962   -1.3323    5.4392 C.ar      1 <0>         0.1133
     13 C10         4.2165   -1.6148    6.5407 C.ar      1 <0>        -0.0593
     14 C11         4.7557   -0.5938    7.2660 C.ar      1 <0>        -0.0784
     15 C12         4.4637    0.7268    6.8754 C.ar      1 <0>         0.1389
     16 C13         3.6295    0.9431    5.7552 C.ar      1 <0>         0.0342
     17 N1          3.1328   -0.0920    5.0778 N.ar      1 <0>        -0.4249
     18 C14         3.3502    2.2831    5.3807 C.ar      1 <0>         0.5704
     19 N2          3.8827    3.2613    6.0963 N.ar      1 <0>        -0.5863
     20 C15         4.6627    3.0102    7.1437 C.ar      1 <0>         0.6905
     21 N3          4.9546    1.7846    7.5351 N.ar      1 <0>        -0.5756
     22 N4          5.1896    4.0772    7.8511 N.pl3     1 <0>        -0.7862
     23 N5          2.5430    2.5598    4.2961 N.pl3     1 <0>        -0.7447
     24 H1         -1.4798    0.9430    0.9569 H         1 <0>         0.0588
     25 H2         -1.6986    0.7625   -0.8004 H         1 <0>         0.1088
     26 H3         -1.8872   -0.6475    0.2694 H         1 <0>         0.0620
     27 H4         -1.1065   -0.6990    2.2053 H         1 <0>         0.1470
     28 H5         -0.0008   -1.8045    4.1053 H         1 <0>         0.1390
     29 H6          3.6979   -1.8024    1.9588 H         1 <0>         0.1435
     30 H7          4.2188   -2.0715   -0.0548 H         1 <0>         0.0596
     31 H8          4.5651   -0.6982   -1.1329 H         1 <0>         0.1077
     32 H9          4.6262   -0.4810    0.6327 H         1 <0>         0.0523
     33 H10         4.4207   -2.6394    6.8144 H         1 <0>         0.1741
     34 H11         5.3894   -0.7929    8.1175 H         1 <0>         0.1749
     35 H12         4.9876    4.9862    7.5796 H         1 <0>         0.4456
     36 H13         5.7609    3.9157    8.6182 H         1 <0>         0.4315
     37 H14         2.1590    1.8341    3.7795 H         1 <0>         0.4399
     38 H15         2.3596    3.4801    4.0503 H         1 <0>         0.4319
     39 H16         5.5280    1.6484    8.3056 H         1 <0>         0.4405
@<TRIPOS>BOND
     1    1    2 1
     2    1   24 1
     3    1   25 1
     4    1   26 1
     5    2    3 1
     6    3    8 ar
     7    3    4 ar
     8    4    5 ar
     9    4   27 1
    10    5    6 ar
    11    5   28 1
    12    6    7 ar
    13    6   11 1
    14    7    8 ar
    15    7   29 1
    16    8    9 1
    17    9   10 1
    18   10   30 1
    19   10   31 1
    20   10   32 1
    21   11   12 1
    22   12   17 ar
    23   12   13 ar
    24   13   14 ar
    25   13   33 1
    26   14   15 ar
    27   14   34 1
    28   15   21 ar
    29   15   16 ar
    30   16   17 ar
    31   16   18 ar
    32   18   19 ar
    33   18   23 1
    34   19   20 ar
    35   20   21 ar
    36   20   22 1
    37   21   39 1
    38   22   35 1
    39   22   36 1
    40   23   37 1
    41   23   38 1
@<TRIPOS>MOLECULE
CHEMBL20812
   53    55     0     0     0
SMALL
USER_CHARGES

@<TRIPOS>ATOM
      1 C1         -0.3365    0.5485   -0.0221 C.3       1 <0>        -0.1751
      2 C2         -0.6260   -0.9255    0.0984 C.2       1 <0>         0.5119
      3 O1         -1.6444   -1.3013    0.6392 O.2       1 <0>        -0.5220
      4 N1          0.2469   -1.8262   -0.3949 N.am      1 <0>        -0.6768
      5 C3          0.0340   -3.1933   -0.1868 C.ar      1 <0>         0.1838
      6 C4          1.1145   -4.0423    0.0176 C.ar      1 <0>        -0.1762
      7 C5          0.9043   -5.3919    0.2229 C.ar      1 <0>        -0.0589
      8 C6         -0.3805   -5.9014    0.2251 C.ar      1 <0>        -0.2237
      9 C7         -1.4635   -5.0581    0.0210 C.ar      1 <0>         0.1413
     10 C8         -1.2569   -3.7020   -0.1788 C.ar      1 <0>        -0.1531
     11 O2         -2.7262   -5.5605    0.0230 O.3       1 <0>        -0.3077
     12 C9         -2.8649   -6.9659    0.2414 C.3       1 <0>         0.0964
     13 C10        -4.3251   -7.3374    0.2099 C.ar      1 <0>        -0.0730
     14 C11        -5.0698   -7.3115    1.3750 C.ar      1 <0>        -0.0669
     15 C12        -6.4098   -7.6512    1.3503 C.ar      1 <0>        -0.1005
     16 C13        -7.0091   -8.0178    0.1610 C.ar      1 <0>        -0.0988
     17 C14        -6.2642   -8.0449   -1.0106 C.ar      1 <0>         0.0914
     18 C15        -4.9194   -7.6979   -0.9833 C.ar      1 <0>        -0.0836
     19 N2         -6.8680   -8.4156   -2.2167 N.pl3     1 <0>        -0.5905
     20 C16        -7.0417   -7.5073   -3.2353 C.2       1 <0>         0.7298
     21 N3         -7.0442   -7.9479   -4.4799 N.2       1 <0>        -0.6377
     22 C17        -6.9064   -9.2572   -4.7493 C.cat     1 <0>         0.7283
     23 N4         -7.0133  -10.1702   -3.8210 N.pl3     1 <0>        -0.6947
     24 C18        -7.3346   -9.7922   -2.4436 C.3       1 <0>         0.4003
     25 C19        -6.6320  -10.7417   -1.4712 C.3       1 <0>        -0.1729
     26 C20        -8.8484   -9.8648   -2.2333 C.3       1 <0>        -0.1820
     27 N5         -6.6445   -9.6495   -6.0465 N.pl3     1 <0>        -0.7923
     28 N6         -7.2084   -6.1776   -2.9647 N.pl3     1 <0>        -0.7673
     29 H1         -1.1493    1.1166    0.4306 H         1 <0>         0.0991
     30 H2          0.5973    0.7786    0.4909 H         1 <0>         0.0949
     31 H3         -0.2483    0.8166   -1.0749 H         1 <0>         0.0937
     32 H4          1.0228   -1.5266   -0.8941 H         1 <0>         0.4164
     33 H5          2.1195   -3.6469    0.0156 H         1 <0>         0.1309
     34 H6          1.7455   -6.0504    0.3817 H         1 <0>         0.1328
     35 H7         -0.5418   -6.9571    0.3856 H         1 <0>         0.1277
     36 H8         -2.0989   -3.0434   -0.3327 H         1 <0>         0.1466
     37 H9         -2.3348   -7.5092   -0.5409 H         1 <0>         0.0742
     38 H10        -2.4448   -7.2259    1.2130 H         1 <0>         0.0813
     39 H11        -4.6035   -7.0256    2.3063 H         1 <0>         0.1409
     40 H12        -6.9885   -7.6303    2.2620 H         1 <0>         0.1447
     41 H13        -8.0557   -8.2834    0.1424 H         1 <0>         0.1367
     42 H14        -4.3385   -7.7137   -1.8936 H         1 <0>         0.1280
     43 H15        -6.9411  -10.5117   -0.4515 H         1 <0>         0.1017
     44 H16        -6.9018  -11.7706   -1.7092 H         1 <0>         0.0986
     45 H17        -5.5525  -10.6193   -1.5600 H         1 <0>         0.0830
     46 H18        -9.3452   -9.1947   -2.9349 H         1 <0>         0.0723
     47 H19        -9.1900  -10.8860   -2.4023 H         1 <0>         0.0974
     48 H20        -9.0883   -9.5656   -1.2130 H         1 <0>         0.0961
     49 H21        -6.5625   -8.9838   -6.7473 H         1 <0>         0.4408
     50 H22        -6.5424  -10.5907   -6.2574 H         1 <0>         0.4287
     51 H23        -7.2840   -5.8753   -2.0461 H         1 <0>         0.4320
     52 H24        -7.2512   -5.5364   -3.6913 H         1 <0>         0.4406
     53 H25        -6.8761  -11.1040   -4.0448 H         1 <0>         0.4316
@<TRIPOS>BOND
     1    1    2 1
     2    1   29 1
     3    1   30 1
     4    1   31 1
     5    2    3 2
     6    2    4 am
     7    4    5 1
     8    4   32 1
     9    5   10 ar
    10    5    6 ar
    11    6    7 ar
    12    6   33 1
    13    7    8 ar
    14    7   34 1
    15    8    9 ar
    16    8   35 1
    17    9   10 ar
    18    9   11 1
    19   10   36 1
    20   11   12 1
    21   12   13 1
    22   12   37 1
    23   12   38 1
    24   13   18 ar
    25   13   14 ar
    26   14   15 ar
    27   14   39 1
    28   15   16 ar
    29   15   40 1
    30   16   17 ar
    31   16   41 1
    32   17   18 ar
    33   17   19 1
    34   18   42 1
    35   19   24 1
    36   19   20 1
    37   20   21 2
    38   20   28 1
    39   21   22 1
    40   22   23 2
    41   22   27 1
    42   23   24 1
    43   23   53 1
    44   24   25 1
    45   24   26 1
    46   25   43 1
    47   25   44 1
    48   25   45 1
    49   26   46 1
    50   26   47 1
    51   26   48 1
    52   27   49 1
    53   27   50 1
    54   28   51 1
    55   28   52 1
@<TRIPOS>MOLECULE
CHEMBL323960
   38    40     0     0     0
SMALL
USER_CHARGES

@<TRIPOS>ATOM
      1 C1         -2.5300    0.2024    0.2922 C.3       1 <0>        -0.1193
      2 C2         -1.3523   -0.7303    0.1735 C.2       1 <0>        -0.0489
      3 C3         -0.9680   -1.2709   -1.1161 C.ar      1 <0>        -0.2962
      4 C4         -1.5528   -1.0617   -2.3978 C.ar      1 <0>         0.5310
      5 N1         -1.0317   -1.6643   -3.4529 N.ar      1 <0>        -0.6322
      6 C5          0.0245   -2.4630   -3.3592 C.ar      1 <0>         0.6276
      7 N2          0.6107   -2.6951   -2.1929 N.ar      1 <0>        -0.5704
      8 C6          0.1518   -2.1320   -1.0923 C.ar      1 <0>         0.1876
      9 S1          0.6158   -2.1672    0.6189 S.3       1 <0>         0.1399
     10 C7         -0.6323   -1.0725    1.2689 C.2       1 <0>        -0.1229
     11 C8         -0.8347   -0.6430    2.6684 C.ar      1 <0>         0.0036
     12 C9         -1.0435    0.7042    2.9647 C.ar      1 <0>        -0.0924
     13 C10        -1.2323    1.0997    4.2775 C.ar      1 <0>         0.0947
     14 C11        -1.2144    0.1591    5.2985 C.ar      1 <0>        -0.1597
     15 C12        -1.0076   -1.1772    5.0118 C.ar      1 <0>        -0.1661
     16 C13        -0.8235   -1.5870    3.7020 C.ar      1 <0>         0.1108
     17 O1         -0.6267   -2.9024    3.4210 O.3       1 <0>        -0.3043
     18 C14        -0.6278   -3.8089    4.5257 C.3       1 <0>         0.0250
     19 O2         -1.4355    2.4126    4.5680 O.3       1 <0>        -0.3157
     20 C15        -1.6234    2.7511    5.9435 C.3       1 <0>         0.0268
     21 N3          0.5235   -3.0658   -4.5018 N.pl3     1 <0>        -0.8119
     22 N4         -2.6541   -0.2373   -2.5370 N.pl3     1 <0>        -0.8337
     23 H1         -2.2104    1.2210    0.0725 H         1 <0>         0.0778
     24 H2         -3.3030   -0.0966   -0.4157 H         1 <0>         0.0718
     25 H3         -2.9285    0.1572    1.3058 H         1 <0>         0.0804
     26 H4         -1.0574    1.4370    2.1714 H         1 <0>         0.1422
     27 H5         -1.3622    0.4729    6.3212 H         1 <0>         0.1339
     28 H6         -0.9943   -1.9039    5.8107 H         1 <0>         0.1363
     29 H7          0.1664   -3.5359    5.2205 H         1 <0>         0.0561
     30 H8         -1.5898   -3.7591    5.0357 H         1 <0>         0.0555
     31 H9         -0.4607   -4.8233    4.1634 H         1 <0>         0.1027
     32 H10        -2.4971    2.2268    6.3307 H         1 <0>         0.0553
     33 H11        -0.7418    2.4580    6.5135 H         1 <0>         0.0555
     34 H12        -1.7747    3.8266    6.0357 H         1 <0>         0.1014
     35 H13         0.1016   -2.9027   -5.3599 H         1 <0>         0.4169
     36 H14         1.2948   -3.6511   -4.4441 H         1 <0>         0.4182
     37 H15        -2.8819    0.3907   -1.8338 H         1 <0>         0.4156
     38 H16        -3.1990   -0.2871   -3.3380 H         1 <0>         0.4074
@<TRIPOS>BOND
     1    1    2 1
     2    1   23 1
     3    1   24 1
     4    1   25 1
     5    2   10 2
     6    2    3 1
     7    3    8 ar
     8    3    4 ar
     9    4    5 ar
    10    4   22 1
    11    5    6 ar
    12    6    7 ar
    13    6   21 1
    14    7    8 ar
    15    8    9 1
    16    9   10 1
    17   10   11 1
    18   11   16 ar
    19   11   12 ar
    20   12   13 ar
    21   12   26 1
    22   13   14 ar
    23   13   19 1
    24   14   15 ar
    25   14   27 1
    26   15   16 ar
    27   15   28 1
    28   16   17 1
    29   17   18 1
    30   18   29 1
    31   18   30 1
    32   18   31 1
    33   19   20 1
    34   20   32 1
    35   20   33 1
    36   20   34 1
    37   21   35 1
    38   21   36 1
    39   22   37 1
    40   22   38 1
@<TRIPOS>MOLECULE
CHEMBL6671
   59    61     0     0     0
SMALL
USER_CHARGES

@<TRIPOS>ATOM
      1 C1          2.5364   -0.7493   -0.3545 C.3       1 <0>        -0.1729
      2 C2          1.1956   -1.3050    0.1296 C.3       1 <0>         0.4031
      3 N1          0.1949   -1.1814   -0.9367 N.pl3     1 <0>        -0.6955
      4 C3         -1.0583   -0.9576   -0.6434 C.cat     1 <0>         0.7287
      5 N2         -1.4746   -0.7899    0.6233 N.2       1 <0>        -0.6366
      6 C4         -0.6098   -0.5917    1.6010 C.2       1 <0>         0.7321
      7 N3          0.7296   -0.5332    1.2921 N.pl3     1 <0>        -0.5935
      8 C5          1.6165    0.2326    2.0559 C.ar      1 <0>         0.1311
      9 C6          1.7470    1.5944    1.8130 C.ar      1 <0>        -0.1404
     10 C7          2.6224    2.3506    2.5676 C.ar      1 <0>        -0.0590
     11 C8          3.3710    1.7554    3.5654 C.ar      1 <0>        -0.1826
     12 C9          3.2448    0.3957    3.8125 C.ar      1 <0>         0.1524
     13 C10         2.3631   -0.3656    3.0612 C.ar      1 <0>        -0.1469
     14 O1          3.9818   -0.1882    4.7937 O.3       1 <0>        -0.3079
     15 C11         4.8662    0.6577    5.5314 C.3       1 <0>         0.0579
     16 C12         5.6049   -0.1711    6.5841 C.3       1 <0>        -0.1167
     17 C13         6.5519    0.7346    7.3740 C.3       1 <0>        -0.1176
     18 C14         7.2906   -0.0943    8.4267 C.3       1 <0>         0.0589
     19 O2          8.1750    0.7517    9.1644 O.3       1 <0>        -0.3104
     20 C15         8.9120    0.1677   10.1456 C.ar      1 <0>         0.1296
     21 C16         8.7907   -1.1928   10.3895 C.ar      1 <0>        -0.1780
     22 C17         9.5412   -1.7840   11.3870 C.ar      1 <0>        -0.0777
     23 C18        10.4129   -1.0212   12.1423 C.ar      1 <0>        -0.1084
     24 C19        10.5353    0.3346   11.9016 C.ar      1 <0>        -0.1414
     25 C20         9.7910    0.9297   10.9011 C.ar      1 <0>        -0.1024
     26 C21        11.4858    1.1631   12.7269 C.3       1 <0>         0.5097
     27 F1         12.1250    0.3443   13.6641 F         1 <0>        -0.1732
     28 F2         12.4419    1.7482   11.8899 F         1 <0>        -0.1735
     29 F3         10.7730    2.1657   13.3931 F         1 <0>        -0.1735
     30 N4         -1.0362   -0.4470    2.8919 N.pl3     1 <0>        -0.7692
     31 N5         -1.9833   -0.8919   -1.6659 N.pl3     1 <0>        -0.7920
     32 C22         1.3572   -2.7759    0.5184 C.3       1 <0>        -0.1815
     33 H1          3.2919   -0.9001    0.4166 H         1 <0>         0.1015
     34 H2          2.8375   -1.2681   -1.2645 H         1 <0>         0.0988
     35 H3          2.4350    0.3163   -0.5603 H         1 <0>         0.0838
     36 H4          1.1637    2.0618    1.0334 H         1 <0>         0.1289
     37 H5          2.7225    3.4090    2.3773 H         1 <0>         0.1424
     38 H6          4.0552    2.3491    4.1533 H         1 <0>         0.1426
     39 H7          2.2606   -1.4231    3.2548 H         1 <0>         0.1419
     40 H8          5.5889    1.1089    4.8515 H         1 <0>         0.0716
     41 H9          4.2919    1.4423    6.0241 H         1 <0>         0.0716
     42 H10         4.8823   -0.6223    7.2641 H         1 <0>         0.0813
     43 H11         6.1793   -0.9557    6.0915 H         1 <0>         0.0814
     44 H12         7.2746    1.1857    6.6940 H         1 <0>         0.0813
     45 H13         5.9776    1.5192    7.8666 H         1 <0>         0.0813
     46 H14         6.5679   -0.5454    9.1067 H         1 <0>         0.0678
     47 H15         7.8649   -0.8788    7.9341 H         1 <0>         0.0678
     48 H16         8.1098   -1.7889    9.8001 H         1 <0>         0.1369
     49 H17         9.4469   -2.8429   11.5775 H         1 <0>         0.1405
     50 H18        10.9989   -1.4853   12.9218 H         1 <0>         0.1432
     51 H19         9.8902    1.9881   10.7105 H         1 <0>         0.1432
     52 H20        -1.9766   -0.5491    3.1064 H         1 <0>         0.4408
     53 H21        -0.3982   -0.2421    3.5933 H         1 <0>         0.4305
     54 H22        -1.6989   -1.0111   -2.5856 H         1 <0>         0.4290
     55 H23        -2.9177   -0.7265   -1.4648 H         1 <0>         0.4408
     56 H24         2.0936   -2.8618    1.3174 H         1 <0>         0.0974
     57 H25         0.4002   -3.1680    0.8626 H         1 <0>         0.0720
     58 H26         1.6930   -3.3459   -0.3480 H         1 <0>         0.0973
     59 H27         0.4656   -1.2660   -1.8643 H         1 <0>         0.4318
@<TRIPOS>BOND
     1    1    2 1
     2    1   33 1
     3    1   34 1
     4    1   35 1
     5    2    7 1
     6    2    3 1
     7    2   32 1
     8    3    4 2
     9    3   59 1
    10    4    5 1
    11    4   31 1
    12    5    6 2
    13    6    7 1
    14    6   30 1
    15    7    8 1
    16    8   13 ar
    17    8    9 ar
    18    9   10 ar
    19    9   36 1
    20   10   11 ar
    21   10   37 1
    22   11   12 ar
    23   11   38 1
    24   12   13 ar
    25   12   14 1
    26   13   39 1
    27   14   15 1
    28   15   16 1
    29   15   40 1
    30   15   41 1
    31   16   17 1
    32   16   42 1
    33   16   43 1
    34   17   18 1
    35   17   44 1
    36   17   45 1
    37   18   19 1
    38   18   46 1
    39   18   47 1
    40   19   20 1
    41   20   25 ar
    42   20   21 ar
    43   21   22 ar
    44   21   48 1
    45   22   23 ar
    46   22   49 1
    47   23   24 ar
    48   23   50 1
    49   24   25 ar
    50   24   26 1
    51   25   51 1
    52   26   27 1
    53   26   28 1
    54   26   29 1
    55   30   52 1
    56   30   53 1
    57   31   54 1
    58   31   55 1
    59   32   56 1
    60   32   57 1
    61   32   58 1
@<TRIPOS>MOLECULE
CHEMBL596672
   49    51     0     0     0
SMALL
USER_CHARGES

@<TRIPOS>ATOM
      1 C1         -1.4153    2.2175    1.2170 C.3       1 <0>        -0.0943
      2 C2         -2.1902    1.1132    1.8885 C.2       1 <0>        -0.1025
      3 C3         -3.6470    0.9751    1.9591 C.ar      1 <0>        -0.2467
      4 C4         -4.7417    1.7169    1.4926 C.ar      1 <0>         0.5769
      5 N1         -5.9663    1.2706    1.7554 N.ar      1 <0>        -0.5783
      6 C5         -6.1491    0.1503    2.4426 C.ar      1 <0>         0.6940
      7 N2         -5.1427   -0.5765    2.8990 N.ar      1 <0>        -0.5463
      8 C6         -3.8833   -0.2053    2.6827 C.ar      1 <0>         0.3192
      9 O1         -2.6859   -0.7215    3.0120 O.3       1 <0>        -0.1362
     10 C7         -1.6834    0.0464    2.5426 C.2       1 <0>         0.0092
     11 S1          0.0333   -0.2890    2.7550 S.3       1 <0>         0.1487
     12 C8          0.0645   -1.7057    3.8021 C.ar      1 <0>        -0.1860
     13 C9          0.1625   -2.9792    3.2460 C.ar      1 <0>        -0.0582
     14 C10         0.1871   -4.0833    4.0582 C.ar      1 <0>        -0.0792
     15 C11         0.1140   -3.9302    5.4463 C.ar      1 <0>        -0.0484
     16 C12         0.0161   -2.6505    6.0017 C.ar      1 <0>        -0.0989
     17 C13        -0.0031   -1.5498    5.1848 C.ar      1 <0>        -0.0559
     18 C14         0.1396   -5.1160    6.3227 C.2       1 <0>         0.5313
     19 O2          0.2244   -6.2282    5.8385 O.2       1 <0>        -0.5398
     20 N3          0.0691   -4.9669    7.6604 N.am      1 <0>        -0.6657
     21 C15         0.0946   -6.1449    8.5310 C.3       1 <0>         0.0712
     22 H1          0.7481   -6.9024    8.0983 H         1 <0>         0.0821
     23 C16         0.6194   -5.7471    9.9120 C.3       1 <0>        -0.0837
     24 C17         2.0777   -5.2995    9.7939 C.3       1 <0>        -0.1777
     25 C18         2.5946   -4.9076   11.1542 C.2       1 <0>         0.4900
     26 O3          1.8643   -4.9798   12.1279 O.co2     1 <0>        -0.6959
     27 O4          3.7430   -4.5185   11.2811 O.co2     1 <0>        -0.7164
     28 C19        -1.2996   -6.7011    8.6645 C.2       1 <0>         0.4996
     29 O5         -1.4647   -7.8954    8.8461 O.co2     1 <0>        -0.6930
     30 O6         -2.2625   -5.9569    8.5909 O.co2     1 <0>        -0.7027
     31 N4         -7.4446   -0.2744    2.6920 N.pl3     1 <0>        -0.7862
     32 N5         -4.5520    2.8861    0.7759 N.pl3     1 <0>        -0.7748
     33 H2         -1.2242    1.9477    0.1783 H         1 <0>         0.0916
     34 H3         -1.9938    3.1406    1.2521 H         1 <0>         0.0725
     35 H4         -0.4672    2.3629    1.7348 H         1 <0>         0.0943
     36 H5          0.2190   -3.0968    2.1739 H         1 <0>         0.1387
     37 H6          0.2624   -5.0703    3.6264 H         1 <0>         0.1492
     38 H7         -0.0405   -2.5292    7.0734 H         1 <0>         0.1442
     39 H8         -0.0749   -0.5611    5.6133 H         1 <0>         0.1389
     40 H9          0.0015   -4.0797    8.0466 H         1 <0>         0.3921
     41 H10         0.0186   -4.9278   10.3068 H         1 <0>         0.0610
     42 H11         0.5551   -6.6020   10.5852 H         1 <0>         0.0767
     43 H12         2.6784   -6.1188    9.3991 H         1 <0>         0.0543
     44 H13         2.1419   -4.4446    9.1208 H         1 <0>         0.0485
     45 H14        -8.1964    0.2447    2.3661 H         1 <0>         0.4464
     46 H15        -7.5995   -1.0907    3.1926 H         1 <0>         0.4333
     47 H16        -3.6535    3.2012    0.5910 H         1 <0>         0.4301
     48 H17        -5.3177    3.3901    0.4587 H         1 <0>         0.4278
     49 H18        -5.3246   -1.3887    3.3971 H         1 <0>         0.4452
@<TRIPOS>BOND
     1    1    2 1
     2    1   33 1
     3    1   34 1
     4    1   35 1
     5    2   10 2
     6    2    3 1
     7    3    8 ar
     8    3    4 ar
     9    4    5 ar
    10    4   32 1
    11    5    6 ar
    12    6    7 ar
    13    6   31 1
    14    7    8 ar
    15    7   49 1
    16    8    9 1
    17    9   10 1
    18   10   11 1
    19   11   12 1
    20   12   17 ar
    21   12   13 ar
    22   13   14 ar
    23   13   36 1
    24   14   15 ar
    25   14   37 1
    26   15   16 ar
    27   15   18 1
    28   16   17 ar
    29   16   38 1
    30   17   39 1
    31   18   19 2
    32   18   20 am
    33   20   21 1
    34   20   40 1
    35   21   22 1
    36   21   23 1
    37   21   28 1
    38   23   24 1
    39   23   41 1
    40   23   42 1
    41   24   25 1
    42   24   43 1
    43   24   44 1
    44   25   26 2
    45   25   27 1
    46   28   29 2
    47   28   30 1
    48   31   45 1
    49   31   46 1
    50   32   47 1
    51   32   48 1
@<TRIPOS>MOLECULE
CHEMBL596672__1
   48    50     0     0     0
SMALL
USER_CHARGES

@<TRIPOS>ATOM
      1 C1         -1.4153    2.2175    1.2170 C.3       1 <0>        -0.0829
      2 C2         -2.1902    1.1132    1.8885 C.2       1 <0>        -0.1105
      3 C3         -3.6470    0.9751    1.9591 C.ar      1 <0>        -0.3214
      4 C4         -4.7417    1.7169    1.4926 C.ar      1 <0>         0.5293
      5 N1         -5.9663    1.2706    1.7554 N.ar      1 <0>        -0.6308
      6 C5         -6.1491    0.1503    2.4426 C.ar      1 <0>         0.6330
      7 N2         -5.1427   -0.5765    2.8990 N.ar      1 <0>        -0.5900
      8 C6         -3.8833   -0.2053    2.6827 C.ar      1 <0>         0.3733
      9 O1         -2.6859   -0.7215    3.0120 O.3       1 <0>        -0.1629
     10 C7         -1.6834    0.0464    2.5426 C.2       1 <0>        -0.0174
     11 S1          0.0333   -0.2890    2.7550 S.3       1 <0>         0.0933
     12 C8          0.0645   -1.7057    3.8021 C.ar      1 <0>        -0.1580
     13 C9          0.1625   -2.9792    3.2460 C.ar      1 <0>        -0.0630
     14 C10         0.1871   -4.0833    4.0582 C.ar      1 <0>        -0.0781
     15 C11         0.1140   -3.9302    5.4463 C.ar      1 <0>        -0.0641
     16 C12         0.0161   -2.6505    6.0017 C.ar      1 <0>        -0.0970
     17 C13        -0.0031   -1.5498    5.1848 C.ar      1 <0>        -0.0595
     18 C14         0.1396   -5.1160    6.3227 C.2       1 <0>         0.5386
     19 O2          0.2244   -6.2282    5.8385 O.2       1 <0>        -0.5456
     20 N3          0.0691   -4.9669    7.6604 N.am      1 <0>        -0.6705
     21 C15         0.0946   -6.1449    8.5310 C.3       1 <0>         0.0726
     22 H1          0.7481   -6.9024    8.0983 H         1 <0>         0.0796
     23 C16         0.6194   -5.7471    9.9120 C.3       1 <0>        -0.0829
     24 C17         2.0777   -5.2995    9.7939 C.3       1 <0>        -0.1776
     25 C18         2.5946   -4.9076   11.1542 C.2       1 <0>         0.4911
     26 O3          1.8643   -4.9798   12.1279 O.co2     1 <0>        -0.6972
     27 O4          3.7430   -4.5185   11.2811 O.co2     1 <0>        -0.7191
     28 C19        -1.2996   -6.7011    8.6645 C.2       1 <0>         0.4982
     29 O5         -1.4647   -7.8954    8.8461 O.co2     1 <0>        -0.6995
     30 O6         -2.2625   -5.9569    8.5909 O.co2     1 <0>        -0.6972
     31 N4         -7.4446   -0.2744    2.6920 N.pl3     1 <0>        -0.8148
     32 N5         -4.5520    2.8861    0.7759 N.pl3     1 <0>        -0.8276
     33 H2         -1.2242    1.9477    0.1783 H         1 <0>         0.0759
     34 H3         -1.9938    3.1406    1.2521 H         1 <0>         0.0645
     35 H4         -0.4672    2.3629    1.7348 H         1 <0>         0.0786
     36 H5          0.2190   -3.0968    2.1739 H         1 <0>         0.1355
     37 H6          0.2624   -5.0703    3.6264 H         1 <0>         0.1442
     38 H7         -0.0405   -2.5292    7.0734 H         1 <0>         0.1394
     39 H8         -0.0749   -0.5611    5.6133 H         1 <0>         0.1360
     40 H9          0.0015   -4.0797    8.0466 H         1 <0>         0.3925
     41 H10         0.0186   -4.9278   10.3068 H         1 <0>         0.0609
     42 H11         0.5551   -6.6020   10.5852 H         1 <0>         0.0740
     43 H12         2.6784   -6.1188    9.3991 H         1 <0>         0.0532
     44 H13         2.1419   -4.4446    9.1208 H         1 <0>         0.0507
     45 H14        -8.1964    0.2447    2.3661 H         1 <0>         0.4152
     46 H15        -7.5995   -1.0907    3.1926 H         1 <0>         0.4186
     47 H16        -3.6535    3.2012    0.5910 H         1 <0>         0.4121
     48 H17        -5.3177    3.3901    0.4587 H         1 <0>         0.4071
@<TRIPOS>BOND
     1    1    2 1
     2    1   33 1
     3    1   34 1
     4    1   35 1
     5    2   10 2
     6    2    3 1
     7    3    8 ar
     8    3    4 ar
     9    4    5 ar
    10    4   32 1
    11    5    6 ar
    12    6    7 ar
    13    6   31 1
    14    7    8 ar
    15    8    9 1
    16    9   10 1
    17   10   11 1
    18   11   12 1
    19   12   17 ar
    20   12   13 ar
    21   13   14 ar
    22   13   36 1
    23   14   15 ar
    24   14   37 1
    25   15   16 ar
    26   15   18 1
    27   16   17 ar
    28   16   38 1
    29   17   39 1
    30   18   19 2
    31   18   20 am
    32   20   21 1
    33   20   40 1
    34   21   22 1
    35   21   23 1
    36   21   28 1
    37   23   24 1
    38   23   41 1
    39   23   42 1
    40   24   25 1
    41   24   43 1
    42   24   44 1
    43   25   26 2
    44   25   27 1
    45   28   29 2
    46   28   30 1
    47   31   45 1
    48   31   46 1
    49   32   47 1
    50   32   48 1
@<TRIPOS>MOLECULE
CHEMBL132431
   59    62     0     0     0
SMALL
USER_CHARGES

@<TRIPOS>ATOM
      1 C1          0.0005    1.4600    0.0112 C.3       1 <0>         0.1172
      2 N1          0.0021   -0.0050    0.0026 N.pl3     1 <0>        -0.6630
      3 C2          0.0059   -0.7450    1.2669 C.3       1 <0>         0.2012
      4 C3         -1.4136   -1.0003    1.7038 C.ar      1 <0>         0.0357
      5 C4         -2.0268   -2.2116    1.3851 C.ar      1 <0>         0.1614
      6 N2         -3.2653   -2.4577    1.7561 N.ar      1 <0>        -0.4359
      7 C5         -3.9419   -1.5361    2.4458 C.ar      1 <0>         0.3698
      8 C6         -3.3139   -0.3068    2.7670 C.ar      1 <0>        -0.0933
      9 N3         -2.0605   -0.0802    2.3871 N.ar      1 <0>        -0.3768
     10 C7         -4.0875    0.6785    3.5246 C.ar      1 <0>         0.5414
     11 N4         -5.3289    0.3589    3.8633 N.ar      1 <0>        -0.6315
     12 C8         -5.8553   -0.8147    3.5279 C.ar      1 <0>         0.6334
     13 N5         -5.2033   -1.7362    2.8474 N.ar      1 <0>        -0.5986
     14 N6         -7.1550   -1.0829    3.9132 N.pl3     1 <0>        -0.8123
     15 N7         -3.5443    1.8954    3.8738 N.pl3     1 <0>        -0.7956
     16 C9          0.0000   -0.6903   -1.2008 C.ar      1 <0>         0.1739
     17 C10         1.1982   -1.0340   -1.7979 C.ar      1 <0>        -0.1156
     18 C11         1.2393   -1.7184   -2.9985 C.ar      1 <0>        -0.0793
     19 C12         0.0640   -2.0850   -3.6483 C.ar      1 <0>        -0.0930
     20 C13        -1.2191   -1.7347   -3.0402 C.ar      1 <0>        -0.0114
     21 C14        -1.2271   -1.0394   -1.8084 C.ar      1 <0>        -0.0579
     22 C15        -2.4544   -0.7045   -1.2169 C.ar      1 <0>        -0.1136
     23 C16        -3.6179   -1.0573   -1.8322 C.ar      1 <0>        -0.1123
     24 C17        -3.6078   -1.7466   -3.0416 C.ar      1 <0>        -0.1275
     25 C18        -2.4324   -2.0771   -3.6488 C.ar      1 <0>        -0.0917
     26 C19         0.1119   -2.8118   -4.9253 C.2       1 <0>         0.5470
     27 O1         -0.9162   -3.2202   -5.4317 O.2       1 <0>        -0.5480
     28 N8          1.2947   -3.0258   -5.5349 N.am      1 <0>        -0.6708
     29 C20         1.3424   -3.7502   -6.8074 C.3       1 <0>         0.0733
     30 C21         2.7196   -4.3951   -6.9758 C.3       1 <0>        -0.0828
     31 C22         2.9194   -5.4604   -5.8960 C.3       1 <0>        -0.1771
     32 C23         4.2759   -6.0956   -6.0619 C.2       1 <0>         0.4909
     33 O2          5.0143   -5.7301   -6.9605 O.co2     1 <0>        -0.6975
     34 O3          4.6348   -6.9750   -5.2974 O.co2     1 <0>        -0.7192
     35 C24         1.0955   -2.7894   -7.9419 C.2       1 <0>         0.4986
     36 O4          1.4295   -1.6217   -7.8355 O.co2     1 <0>        -0.6982
     37 O5          0.5616   -3.1798   -8.9661 O.co2     1 <0>        -0.7001
     38 H1          1.0277    1.8245    0.0109 H         1 <0>         0.0394
     39 H2         -0.5159    1.8280   -0.8754 H         1 <0>         0.0541
     40 H3         -0.5117    1.8175    0.9045 H         1 <0>         0.0586
     41 H4          0.5205   -1.6960    1.1297 H         1 <0>         0.0916
     42 H5          0.5209   -0.1598    2.0288 H         1 <0>         0.0896
     43 H6         -1.4789   -2.9564    0.8270 H         1 <0>         0.1765
     44 H7         -7.6582   -0.4226    4.4149 H         1 <0>         0.4139
     45 H8         -7.5641   -1.9314    3.6819 H         1 <0>         0.4181
     46 H9         -2.6341    2.1117    3.6175 H         1 <0>         0.4251
     47 H10        -4.0720    2.5359    4.3760 H         1 <0>         0.4128
     48 H11         2.1249   -0.7610   -1.3151 H         1 <0>         0.1285
     49 H12         2.1934   -1.9711   -3.4370 H         1 <0>         0.1341
     50 H13        -2.4769   -0.1701   -0.2786 H         1 <0>         0.1120
     51 H14        -4.5615   -0.7987   -1.3749 H         1 <0>         0.1061
     52 H15        -4.5433   -2.0154   -3.5095 H         1 <0>         0.1190
     53 H16        -2.4374   -2.6116   -4.5872 H         1 <0>         0.1707
     54 H17         2.1144   -2.7003   -5.1311 H         1 <0>         0.3921
     55 H18         0.5753   -4.5246   -6.8137 H         1 <0>         0.0796
     56 H19         2.7858   -4.8586   -7.9602 H         1 <0>         0.0730
     57 H20         3.4921   -3.6320   -6.8809 H         1 <0>         0.0604
     58 H21         2.8532   -4.9968   -4.9117 H         1 <0>         0.0511
     59 H22         2.1468   -6.2234   -5.9910 H         1 <0>         0.0530
@<TRIPOS>BOND
     1    1    2 1
     2    1   38 1
     3    1   39 1
     4    1   40 1
     5    2    3 1
     6    2   16 1
     7    3    4 1
     8    3   41 1
     9    3   42 1
    10    4    9 ar
    11    4    5 ar
    12    5    6 ar
    13    5   43 1
    14    6    7 ar
    15    7   13 ar
    16    7    8 ar
    17    8    9 ar
    18    8   10 ar
    19   10   11 ar
    20   10   15 1
    21   11   12 ar
    22   12   13 ar
    23   12   14 1
    24   14   44 1
    25   14   45 1
    26   15   46 1
    27   15   47 1
    28   16   21 ar
    29   16   17 ar
    30   17   18 ar
    31   17   48 1
    32   18   19 ar
    33   18   49 1
    34   19   20 ar
    35   19   26 1
    36   20   25 ar
    37   20   21 ar
    38   21   22 ar
    39   22   23 ar
    40   22   50 1
    41   23   24 ar
    42   23   51 1
    43   24   25 ar
    44   24   52 1
    45   25   53 1
    46   26   27 2
    47   26   28 am
    48   28   29 1
    49   28   54 1
    50   29   30 1
    51   29   35 1
    52   29   55 1
    53   30   31 1
    54   30   56 1
    55   30   57 1
    56   31   32 1
    57   31   58 1
    58   31   59 1
    59   32   33 2
    60   32   34 1
    61   35   36 2
    62   35   37 1
@<TRIPOS>MOLECULE
CHEMBL132431__1
   59    62     0     0     0
SMALL
USER_CHARGES

@<TRIPOS>ATOM
      1 C1          0.0005    1.4600    0.0112 C.3       1 <0>         0.1173
      2 N1          0.0021   -0.0050    0.0026 N.pl3     1 <0>        -0.6629
      3 C2          0.0059   -0.7450    1.2669 C.3       1 <0>         0.2012
      4 C3         -1.4136   -1.0003    1.7038 C.ar      1 <0>         0.0359
      5 C4         -2.0268   -2.2116    1.3851 C.ar      1 <0>         0.1616
      6 N2         -3.2653   -2.4577    1.7561 N.ar      1 <0>        -0.4356
      7 C5         -3.9419   -1.5360    2.4458 C.ar      1 <0>         0.3696
      8 C6         -3.3139   -0.3068    2.7670 C.ar      1 <0>        -0.0934
      9 N3         -2.0605   -0.0802    2.3871 N.ar      1 <0>        -0.3769
     10 C7         -4.0875    0.6785    3.5246 C.ar      1 <0>         0.5413
     11 N4         -5.3289    0.3590    3.8633 N.ar      1 <0>        -0.6317
     12 C8         -5.8553   -0.8147    3.5279 C.ar      1 <0>         0.6331
     13 N5         -5.2033   -1.7362    2.8474 N.ar      1 <0>        -0.5984
     14 N6         -7.1550   -1.0829    3.9132 N.pl3     1 <0>        -0.8124
     15 N7         -3.5443    1.8954    3.8738 N.pl3     1 <0>        -0.7957
     16 C9          0.0000   -0.6903   -1.2008 C.ar      1 <0>         0.1724
     17 C10         1.1982   -1.0340   -1.7979 C.ar      1 <0>        -0.1151
     18 C11         1.2393   -1.7184   -2.9985 C.ar      1 <0>        -0.0801
     19 C12         0.0640   -2.0850   -3.6483 C.ar      1 <0>        -0.0904
     20 C13        -1.2191   -1.7347   -3.0402 C.ar      1 <0>        -0.0120
     21 C14        -1.2271   -1.0394   -1.8084 C.ar      1 <0>        -0.0577
     22 C15        -2.4544   -0.7045   -1.2169 C.ar      1 <0>        -0.1137
     23 C16        -3.6179   -1.0573   -1.8322 C.ar      1 <0>        -0.1126
     24 C17        -3.6078   -1.7466   -3.0416 C.ar      1 <0>        -0.1283
     25 C18        -2.4324   -2.0771   -3.6488 C.ar      1 <0>        -0.0912
     26 C19         0.1119   -2.8118   -4.9253 C.2       1 <0>         0.5540
     27 O1         -0.9162   -3.2202   -5.4317 O.2       1 <0>        -0.5493
     28 N8          1.2947   -3.0258   -5.5349 N.am      1 <0>        -0.6714
     29 C20         1.3424   -3.7502   -6.8074 C.3       1 <0>         0.0722
     30 C21         2.5989   -3.3426   -7.5795 C.3       1 <0>        -0.0807
     31 C22         2.5069   -1.8633   -7.9590 C.3       1 <0>        -0.1780
     32 C23         3.7445   -1.4619   -8.7194 C.2       1 <0>         0.4908
     33 O2          4.6190   -2.2829   -8.9376 O.co2     1 <0>        -0.6970
     34 O3          3.8712   -0.3161   -9.1164 O.co2     1 <0>        -0.7202
     35 C24         1.3757   -5.2330   -6.5405 C.2       1 <0>         0.4962
     36 O4          1.3610   -5.6464   -5.3936 O.co2     1 <0>        -0.6959
     37 O5          1.4174   -6.0192   -7.4714 O.co2     1 <0>        -0.6990
     38 H1          1.0277    1.8245    0.0109 H         1 <0>         0.0394
     39 H2         -0.5159    1.8280   -0.8754 H         1 <0>         0.0539
     40 H3         -0.5117    1.8175    0.9045 H         1 <0>         0.0584
     41 H4          0.5205   -1.6960    1.1297 H         1 <0>         0.0915
     42 H5          0.5209   -0.1598    2.0288 H         1 <0>         0.0894
     43 H6         -1.4789   -2.9564    0.8270 H         1 <0>         0.1769
     44 H7         -7.6582   -0.4226    4.4149 H         1 <0>         0.4138
     45 H8         -7.5641   -1.9314    3.6819 H         1 <0>         0.4181
     46 H9         -2.6341    2.1117    3.6175 H         1 <0>         0.4251
     47 H10        -4.0720    2.5359    4.3760 H         1 <0>         0.4128
     48 H11         2.1249   -0.7610   -1.3151 H         1 <0>         0.1279
     49 H12         2.1934   -1.9711   -3.4370 H         1 <0>         0.1334
     50 H13        -2.4769   -0.1701   -0.2786 H         1 <0>         0.1118
     51 H14        -4.5615   -0.7987   -1.3749 H         1 <0>         0.1058
     52 H15        -4.5433   -2.0154   -3.5095 H         1 <0>         0.1186
     53 H16        -2.4374   -2.6116   -4.5872 H         1 <0>         0.1706
     54 H17         2.1144   -2.7003   -5.1311 H         1 <0>         0.3899
     55 H18         0.4586   -3.5070   -7.3973 H         1 <0>         0.0792
     56 H19         3.4774   -3.5034   -6.9546 H         1 <0>         0.0554
     57 H20         2.6810   -3.9453   -8.4839 H         1 <0>         0.0796
     58 H21         1.6283   -1.7025   -8.5838 H         1 <0>         0.0522
     59 H22         2.4247   -1.2606   -7.0545 H         1 <0>         0.0500
@<TRIPOS>BOND
     1    1    2 1
     2    1   38 1
     3    1   39 1
     4    1   40 1
     5    2    3 1
     6    2   16 1
     7    3    4 1
     8    3   41 1
     9    3   42 1
    10    4    9 ar
    11    4    5 ar
    12    5    6 ar
    13    5   43 1
    14    6    7 ar
    15    7   13 ar
    16    7    8 ar
    17    8    9 ar
    18    8   10 ar
    19   10   11 ar
    20   10   15 1
    21   11   12 ar
    22   12   13 ar
    23   12   14 1
    24   14   44 1
    25   14   45 1
    26   15   46 1
    27   15   47 1
    28   16   21 ar
    29   16   17 ar
    30   17   18 ar
    31   17   48 1
    32   18   19 ar
    33   18   49 1
    34   19   20 ar
    35   19   26 1
    36   20   25 ar
    37   20   21 ar
    38   21   22 ar
    39   22   23 ar
    40   22   50 1
    41   23   24 ar
    42   23   51 1
    43   24   25 ar
    44   24   52 1
    45   25   53 1
    46   26   27 2
    47   26   28 am
    48   28   29 1
    49   28   54 1
    50   29   30 1
    51   29   35 1
    52   29   55 1
    53   30   31 1
    54   30   56 1
    55   30   57 1
    56   31   32 1
    57   31   58 1
    58   31   59 1
    59   32   33 2
    60   32   34 1
    61   35   36 2
    62   35   37 1
@<TRIPOS>MOLECULE
CHEMBL135937
   36    37     0     0     0
SMALL
USER_CHARGES

@<TRIPOS>ATOM
      1 C1         -0.1585    1.4358   -0.1412 C.3       1 <0>        -0.1422
      2 C2         -0.1312   -0.0704   -0.1010 C.2       1 <0>         0.1455
      3 C3         -1.2868   -0.7935    0.1155 C.2       1 <0>        -0.2625
      4 C4         -2.5922   -0.1806    0.3850 C.2       1 <0>         0.5805
      5 O1         -2.6887    0.9892    0.7055 O.2       1 <0>        -0.4784
      6 N1         -3.6846   -0.9697    0.2620 N.am      1 <0>        -0.7614
      7 C5         -3.5969   -2.3232   -0.2692 C.3       1 <0>         0.5257
      8 N2         -2.3077   -2.9579   -0.0168 N.pl3     1 <0>        -0.6255
      9 C6         -1.2130   -2.2664    0.1129 C.cat     1 <0>         0.5167
     10 N3          0.0321   -2.8365    0.2560 N.pl3     1 <0>        -0.4669
     11 C7          1.1196   -2.1198   -0.1537 C.2       1 <0>         0.1739
     12 C8          1.0662   -0.7721   -0.2879 C.2       1 <0>        -0.1948
     13 C9          0.1858   -4.1746    0.8323 C.3       1 <0>         0.0763
     14 C10         0.2103   -4.0728    2.3587 C.3       1 <0>        -0.1141
     15 C11         0.2514   -5.4778    2.9629 C.3       1 <0>        -0.1512
     16 C12         1.4508   -3.2922    2.7979 C.3       1 <0>        -0.1599
     17 N4         -3.8236   -2.2762   -1.7199 N.3       1 <0>        -0.8418
     18 H1          0.8473    1.8125   -0.3271 H         1 <0>         0.0927
     19 H2         -0.8234    1.7659   -0.9393 H         1 <0>         0.1044
     20 H3         -0.5190    1.8183    0.8136 H         1 <0>         0.1143
     21 H4         -4.5491   -0.6250    0.5353 H         1 <0>         0.4291
     22 H5         -4.3805   -2.9292    0.1855 H         1 <0>         0.1591
     23 H6          2.0400   -2.6376   -0.3799 H         1 <0>         0.2027
     24 H7          1.9648   -0.2285   -0.5396 H         1 <0>         0.1828
     25 H8         -0.6506   -4.8015    0.5233 H         1 <0>         0.1039
     26 H9          1.1192   -4.6158    0.4825 H         1 <0>         0.1322
     27 H10        -0.6852   -3.5553    2.7027 H         1 <0>         0.0776
     28 H11         1.1469   -5.9952    2.6189 H         1 <0>         0.0697
     29 H12         0.2689   -5.4052    4.0504 H         1 <0>         0.0765
     30 H13        -0.6323   -6.0338    2.6500 H         1 <0>         0.0639
     31 H14         1.5318   -3.3202    3.8845 H         1 <0>         0.0763
     32 H15         2.3392   -3.7430    2.3556 H         1 <0>         0.0689
     33 H16         1.3652   -2.2574    2.4665 H         1 <0>         0.0529
     34 H17        -4.7345   -1.8971   -1.9314 H         1 <0>         0.3821
     35 H18        -3.0970   -1.7509   -2.1826 H         1 <0>         0.3538
     36 H19        -2.2653   -3.9242    0.0567 H         1 <0>         0.4372
@<TRIPOS>BOND
     1    1    2 1
     2    1   18 1
     3    1   19 1
     4    1   20 1
     5    2   12 1
     6    2    3 2
     7    3    9 1
     8    3    4 1
     9    4    5 2
    10    4    6 am
    11    6    7 1
    12    6   21 1
    13    7    8 1
    14    7   17 1
    15    7   22 1
    16    8    9 2
    17    8   36 1
    18    9   10 1
    19   10   11 1
    20   10   13 1
    21   11   12 2
    22   11   23 1
    23   12   24 1
    24   13   14 1
    25   13   25 1
    26   13   26 1
    27   14   15 1
    28   14   16 1
    29   14   27 1
    30   15   28 1
    31   15   29 1
    32   15   30 1
    33   16   31 1
    34   16   32 1
    35   16   33 1
    36   17   34 1
    37   17   35 1
@<TRIPOS>MOLECULE
CHEMBL135937__1
   35    36     0     0     0
SMALL
USER_CHARGES

@<TRIPOS>ATOM
      1 C1         -0.0184    1.5028    0.0103 C.3       1 <0>        -0.1244
      2 C2          0.0021   -0.0041    0.0020 C.2       1 <0>         0.0981
      3 C3         -1.1733   -0.7277    0.0036 C.2       1 <0>        -0.2894
      4 C4         -2.5057   -0.1165   -0.0536 C.2       1 <0>         0.5876
      5 O1         -2.6560    1.0456   -0.3816 O.2       1 <0>        -0.5304
      6 N1         -3.5608   -0.8983    0.2731 N.am      1 <0>        -0.7423
      7 C5         -3.3832   -2.2391    0.8139 C.3       1 <0>         0.5113
      8 N2         -2.1558   -2.8845    0.3602 N.2       1 <0>        -0.6115
      9 C6         -1.0996   -2.2004    0.0289 C.2       1 <0>         0.4530
     10 N3          0.1029   -2.7784   -0.3111 N.pl3     1 <0>        -0.4901
     11 C7          1.2442   -2.0563   -0.1106 C.2       1 <0>         0.1786
     12 C8          1.2140   -0.7056   -0.0133 C.2       1 <0>        -0.2515
     13 C9          0.1564   -4.1307   -0.8720 C.3       1 <0>         0.1109
     14 C10         0.0620   -4.0543   -2.3972 C.3       1 <0>        -0.1124
     15 C11         1.2960   -3.3380   -2.9494 C.3       1 <0>        -0.1532
     16 C12        -0.0078   -5.4692   -2.9754 C.3       1 <0>        -0.1441
     17 N4         -4.5281   -3.0661    0.4102 N.3       1 <0>        -0.8479
     18 H1          1.0042    1.8801    0.0026 H         1 <0>         0.0706
     19 H2         -0.5455    1.8639   -0.8728 H         1 <0>         0.0946
     20 H3         -0.5286    1.8543    0.9071 H         1 <0>         0.0825
     21 H4         -4.4594   -0.5566    0.1440 H         1 <0>         0.4020
     22 H5         -3.3650   -2.1781    1.9020 H         1 <0>         0.0506
     23 H6          2.1899   -2.5721   -0.0326 H         1 <0>         0.1671
     24 H7          2.1430   -0.1594    0.0581 H         1 <0>         0.1494
     25 H8          1.0966   -4.6043   -0.5895 H         1 <0>         0.0907
     26 H9         -0.6767   -4.7176   -0.4854 H         1 <0>         0.1043
     27 H10        -0.8348   -3.5023   -2.6785 H         1 <0>         0.0752
     28 H11         2.1928   -3.8901   -2.6681 H         1 <0>         0.0582
     29 H12         1.2287   -3.2836   -4.0359 H         1 <0>         0.0605
     30 H13         1.3457   -2.3301   -2.5375 H         1 <0>         0.0561
     31 H14        -0.8870   -5.9795   -2.5820 H         1 <0>         0.0600
     32 H15        -0.0751   -5.4148   -4.0619 H         1 <0>         0.0620
     33 H16         0.8890   -6.0212   -2.6940 H         1 <0>         0.0586
     34 H17        -4.4397   -4.0054    0.7679 H         1 <0>         0.3646
     35 H18        -5.3980   -2.6477    0.7041 H         1 <0>         0.3507
@<TRIPOS>BOND
     1    1    2 1
     2    1   18 1
     3    1   19 1
     4    1   20 1
     5    2   12 1
     6    2    3 2
     7    3    9 1
     8    3    4 1
     9    4    5 2
    10    4    6 am
    11    6    7 1
    12    6   21 1
    13    7    8 1
    14    7   17 1
    15    7   22 1
    16    8    9 2
    17    9   10 1
    18   10   11 1
    19   10   13 1
    20   11   12 2
    21   11   23 1
    22   12   24 1
    23   13   14 1
    24   13   25 1
    25   13   26 1
    26   14   15 1
    27   14   16 1
    28   14   27 1
    29   15   28 1
    30   15   29 1
    31   15   30 1
    32   16   31 1
    33   16   32 1
    34   16   33 1
    35   17   34 1
    36   17   35 1
@<TRIPOS>MOLECULE
CHEMBL135937__2
   35    36     0     0     0
SMALL
USER_CHARGES

@<TRIPOS>ATOM
      1 C1         -0.0184    1.5028    0.0103 C.3       1 <0>        -0.1177
      2 C2          0.0021   -0.0041    0.0020 C.2       1 <0>         0.0809
      3 C3         -1.1706   -0.7259    0.0036 C.2       1 <0>        -0.2034
      4 C4         -2.5078   -0.1171   -0.0521 C.2       1 <0>         0.4760
      5 O1         -2.6782    1.1617   -0.4603 O.3       1 <0>        -0.6601
      6 N1         -3.5262   -0.8539    0.3059 N.2       1 <0>        -0.7096
      7 C5         -3.3784   -2.2100    0.8113 C.3       1 <0>         0.4721
      8 N2         -2.1613   -2.8740    0.3565 N.pl3     1 <0>        -0.6288
      9 C6         -1.0973   -2.1983    0.0276 C.cat     1 <0>         0.4998
     10 N3          0.1032   -2.7784   -0.3089 N.pl3     1 <0>        -0.4817
     11 C7          1.2465   -2.0558   -0.1096 C.2       1 <0>         0.1224
     12 C8          1.2159   -0.7065   -0.0133 C.2       1 <0>        -0.1839
     13 C9          0.1555   -4.1329   -0.8648 C.3       1 <0>         0.0864
     14 C10         0.0625   -4.0620   -2.3903 C.3       1 <0>        -0.1155
     15 C11         1.2979   -3.3492   -2.9440 C.3       1 <0>        -0.1559
     16 C12        -0.0084   -5.4789   -2.9633 C.3       1 <0>        -0.1471
     17 N4         -4.5365   -3.0023    0.3764 N.3       1 <0>        -0.8383
     18 H1          1.0042    1.8801    0.0026 H         1 <0>         0.0669
     19 H2         -0.5455    1.8639   -0.8728 H         1 <0>         0.1088
     20 H3         -0.5286    1.8543    0.9071 H         1 <0>         0.0919
     21 H4         -3.3714   -2.1772    1.9008 H         1 <0>         0.0966
     22 H5          2.1922   -2.5715   -0.0319 H         1 <0>         0.1830
     23 H6          2.1448   -0.1601    0.0578 H         1 <0>         0.1631
     24 H7          1.0949   -4.6066   -0.5797 H         1 <0>         0.1172
     25 H8         -0.6786   -4.7174   -0.4767 H         1 <0>         0.0947
     26 H9         -0.8333   -3.5099   -2.6745 H         1 <0>         0.0784
     27 H10         1.2317   -3.2987   -4.0308 H         1 <0>         0.0689
     28 H11         1.3484   -2.3398   -2.5358 H         1 <0>         0.0580
     29 H12         2.1938   -3.9012   -2.6599 H         1 <0>         0.0637
     30 H13        -0.8885   -5.9867   -2.5689 H         1 <0>         0.0613
     31 H14        -0.0747   -5.4284   -4.0502 H         1 <0>         0.0707
     32 H15         0.8875   -6.0309   -2.6792 H         1 <0>         0.0642
     33 H16        -5.3963   -2.6098    0.7294 H         1 <0>         0.3719
     34 H17        -4.5620   -3.0835   -0.6290 H         1 <0>         0.3393
     35 H18        -2.1441   -3.8421    0.2977 H         1 <0>         0.4058
@<TRIPOS>BOND
     1    1    2 1
     2    1   18 1
     3    1   19 1
     4    1   20 1
     5    2   12 1
     6    2    3 2
     7    3    9 1
     8    3    4 1
     9    4    5 1
    10    4    6 2
    11    6    7 1
    12    7    8 1
    13    7   17 1
    14    7   21 1
    15    8    9 2
    16    8   35 1
    17    9   10 1
    18   10   11 1
    19   10   13 1
    20   11   12 2
    21   11   22 1
    22   12   23 1
    23   13   14 1
    24   13   24 1
    25   13   25 1
    26   14   15 1
    27   14   16 1
    28   14   26 1
    29   15   27 1
    30   15   28 1
    31   15   29 1
    32   16   30 1
    33   16   31 1
    34   16   32 1
    35   17   33 1
    36   17   34 1
@<TRIPOS>MOLECULE
CHEMBL135937__3
   36    37     0     0     0
SMALL
USER_CHARGES

@<TRIPOS>ATOM
      1 C1         -0.0184    1.5028    0.0103 C.3       1 <0>        -0.1419
      2 C2          0.0021   -0.0041    0.0020 C.2       1 <0>         0.1415
      3 C3         -1.1733   -0.7277    0.0036 C.2       1 <0>        -0.2459
      4 C4         -2.5057   -0.1165   -0.0536 C.2       1 <0>         0.5915
      5 O1         -2.6560    1.0456   -0.3816 O.2       1 <0>        -0.4795
      6 N1         -3.5608   -0.8983    0.2731 N.am      1 <0>        -0.7277
      7 C5         -3.3832   -2.2391    0.8139 C.3       1 <0>         0.5384
      8 N2         -2.1558   -2.8845    0.3602 N.pl3     1 <0>        -0.6368
      9 C6         -1.0996   -2.2004    0.0289 C.cat     1 <0>         0.5274
     10 N3          0.1029   -2.7784   -0.3111 N.pl3     1 <0>        -0.4700
     11 C7          1.2442   -2.0563   -0.1106 C.2       1 <0>         0.1671
     12 C8          1.2140   -0.7056   -0.0133 C.2       1 <0>        -0.1903
     13 C9          0.1564   -4.1307   -0.8720 C.3       1 <0>         0.0787
     14 C10         0.0620   -4.0543   -2.3972 C.3       1 <0>        -0.1150
     15 C11         0.2427   -5.4532   -2.9901 C.3       1 <0>        -0.1502
     16 C12        -1.3089   -3.5045   -2.7964 C.3       1 <0>        -0.1624
     17 N4         -3.3587   -2.1569    2.2804 N.3       1 <0>        -0.8683
     18 H1          1.0042    1.8801    0.0026 H         1 <0>         0.0918
     19 H2         -0.5455    1.8639   -0.8728 H         1 <0>         0.1139
     20 H3         -0.5286    1.8543    0.9071 H         1 <0>         0.1051
     21 H4         -4.4594   -0.5566    0.1440 H         1 <0>         0.4304
     22 H5         -4.2327   -2.8528    0.5143 H         1 <0>         0.1179
     23 H6          2.1899   -2.5721   -0.0326 H         1 <0>         0.2025
     24 H7          2.1430   -0.1594    0.0581 H         1 <0>         0.1820
     25 H8          1.0966   -4.6043   -0.5895 H         1 <0>         0.1307
     26 H9         -0.6767   -4.7176   -0.4854 H         1 <0>         0.1007
     27 H10         0.8425   -3.3951   -2.7770 H         1 <0>         0.0927
     28 H11        -0.5378   -6.1124   -2.6103 H         1 <0>         0.0643
     29 H12         0.1754   -5.3988   -4.0766 H         1 <0>         0.0765
     30 H13         1.2193   -5.8449   -2.7057 H         1 <0>         0.0689
     31 H14        -1.3762   -3.4500   -3.8830 H         1 <0>         0.0817
     32 H15        -2.0894   -4.1637   -2.4166 H         1 <0>         0.0613
     33 H16        -1.4376   -2.5079   -2.3740 H         1 <0>         0.0434
     34 H17        -4.2201   -1.7695    2.6353 H         1 <0>         0.3816
     35 H18        -3.1725   -3.0600    2.6901 H         1 <0>         0.3668
     36 H19        -2.1263   -3.8524    0.3038 H         1 <0>         0.4313
@<TRIPOS>BOND
     1    1    2 1
     2    1   18 1
     3    1   19 1
     4    1   20 1
     5    2   12 1
     6    2    3 2
     7    3    9 1
     8    3    4 1
     9    4    5 2
    10    4    6 am
    11    6    7 1
    12    6   21 1
    13    7    8 1
    14    7   17 1
    15    7   22 1
    16    8    9 2
    17    8   36 1
    18    9   10 1
    19   10   11 1
    20   10   13 1
    21   11   12 2
    22   11   23 1
    23   12   24 1
    24   13   14 1
    25   13   25 1
    26   13   26 1
    27   14   15 1
    28   14   16 1
    29   14   27 1
    30   15   28 1
    31   15   29 1
    32   15   30 1
    33   16   31 1
    34   16   32 1
    35   16   33 1
    36   17   34 1
    37   17   35 1
@<TRIPOS>MOLECULE
CHEMBL135937__4
   35    36     0     0     0
SMALL
USER_CHARGES

@<TRIPOS>ATOM
      1 C1         -0.0184    1.5028    0.0103 C.3       1 <0>        -0.1250
      2 C2          0.0021   -0.0041    0.0020 C.2       1 <0>         0.0987
      3 C3         -1.1733   -0.7277    0.0036 C.2       1 <0>        -0.2923
      4 C4         -2.5057   -0.1165   -0.0536 C.2       1 <0>         0.5824
      5 O1         -2.6560    1.0456   -0.3816 O.2       1 <0>        -0.5301
      6 N1         -3.5608   -0.8983    0.2731 N.am      1 <0>        -0.7375
      7 C5         -3.3832   -2.2391    0.8139 C.3       1 <0>         0.4931
      8 N2         -2.1558   -2.8845    0.3602 N.2       1 <0>        -0.6483
      9 C6         -1.0996   -2.2004    0.0289 C.2       1 <0>         0.4551
     10 N3          0.1029   -2.7784   -0.3111 N.pl3     1 <0>        -0.4913
     11 C7          1.2442   -2.0563   -0.1106 C.2       1 <0>         0.1773
     12 C8          1.2140   -0.7056   -0.0133 C.2       1 <0>        -0.2508
     13 C9          0.1564   -4.1307   -0.8720 C.3       1 <0>         0.1101
     14 C10         0.0620   -4.0543   -2.3972 C.3       1 <0>        -0.1124
     15 C11         1.2960   -3.3380   -2.9494 C.3       1 <0>        -0.1535
     16 C12        -0.0078   -5.4692   -2.9754 C.3       1 <0>        -0.1446
     17 N4         -3.3587   -2.1569    2.2804 N.3       1 <0>        -0.8469
     18 H1          1.0042    1.8801    0.0026 H         1 <0>         0.0707
     19 H2         -0.5455    1.8639   -0.8728 H         1 <0>         0.0949
     20 H3         -0.5286    1.8543    0.9071 H         1 <0>         0.0832
     21 H4         -4.4594   -0.5566    0.1440 H         1 <0>         0.4070
     22 H5         -4.2327   -2.8528    0.5143 H         1 <0>         0.1219
     23 H6          2.1899   -2.5721   -0.0326 H         1 <0>         0.1669
     24 H7          2.1430   -0.1594    0.0581 H         1 <0>         0.1496
     25 H8          1.0966   -4.6043   -0.5895 H         1 <0>         0.0910
     26 H9         -0.6767   -4.7176   -0.4854 H         1 <0>         0.1044
     27 H10        -0.8348   -3.5023   -2.6785 H         1 <0>         0.0743
     28 H11         2.1928   -3.8901   -2.6681 H         1 <0>         0.0586
     29 H12         1.2287   -3.2836   -4.0359 H         1 <0>         0.0610
     30 H13         1.3457   -2.3301   -2.5375 H         1 <0>         0.0560
     31 H14        -0.8870   -5.9795   -2.5820 H         1 <0>         0.0599
     32 H15        -0.0751   -5.4148   -4.0619 H         1 <0>         0.0625
     33 H16         0.8890   -6.0212   -2.6940 H         1 <0>         0.0592
     34 H17        -3.2367   -3.0701    2.6918 H         1 <0>         0.3570
     35 H18        -2.6421   -1.5200    2.5949 H         1 <0>         0.3378
@<TRIPOS>BOND
     1    1    2 1
     2    1   18 1
     3    1   19 1
     4    1   20 1
     5    2   12 1
     6    2    3 2
     7    3    9 1
     8    3    4 1
     9    4    5 2
    10    4    6 am
    11    6    7 1
    12    6   21 1
    13    7    8 1
    14    7   17 1
    15    7   22 1
    16    8    9 2
    17    9   10 1
    18   10   11 1
    19   10   13 1
    20   11   12 2
    21   11   23 1
    22   12   24 1
    23   13   14 1
    24   13   25 1
    25   13   26 1
    26   14   15 1
    27   14   16 1
    28   14   27 1
    29   15   28 1
    30   15   29 1
    31   15   30 1
    32   16   31 1
    33   16   32 1
    34   16   33 1
    35   17   34 1
    36   17   35 1
@<TRIPOS>MOLECULE
CHEMBL135937__5
   35    36     0     0     0
SMALL
USER_CHARGES

@<TRIPOS>ATOM
      1 C1         -0.0184    1.5028    0.0103 C.3       1 <0>        -0.1173
      2 C2          0.0021   -0.0041    0.0020 C.2       1 <0>         0.0781
      3 C3         -1.1706   -0.7259    0.0036 C.2       1 <0>        -0.1888
      4 C4         -2.5078   -0.1171   -0.0521 C.2       1 <0>         0.4816
      5 O1         -2.6782    1.1617   -0.4603 O.3       1 <0>        -0.6619
      6 N1         -3.5262   -0.8539    0.3059 N.2       1 <0>        -0.6737
      7 C5         -3.3784   -2.2100    0.8113 C.3       1 <0>         0.4851
      8 N2         -2.1613   -2.8740    0.3565 N.pl3     1 <0>        -0.6383
      9 C6         -1.0973   -2.1983    0.0276 C.cat     1 <0>         0.5099
     10 N3          0.1032   -2.7784   -0.3089 N.pl3     1 <0>        -0.4825
     11 C7          1.2465   -2.0558   -0.1096 C.2       1 <0>         0.1188
     12 C8          1.2159   -0.7065   -0.0133 C.2       1 <0>        -0.1812
     13 C9          0.1555   -4.1329   -0.8648 C.3       1 <0>         0.0870
     14 C10         0.0625   -4.0620   -2.3903 C.3       1 <0>        -0.1164
     15 C11         1.2979   -3.3492   -2.9440 C.3       1 <0>        -0.1559
     16 C12        -0.0084   -5.4789   -2.9633 C.3       1 <0>        -0.1469
     17 N4         -3.3690   -2.1658    2.2796 N.3       1 <0>        -0.8673
     18 H1          1.0042    1.8801    0.0026 H         1 <0>         0.0662
     19 H2         -0.5455    1.8639   -0.8728 H         1 <0>         0.1088
     20 H3         -0.5286    1.8543    0.9071 H         1 <0>         0.0924
     21 H4         -4.2377   -2.7979    0.4886 H         1 <0>         0.0795
     22 H5          2.1922   -2.5715   -0.0319 H         1 <0>         0.1825
     23 H6          2.1448   -0.1601    0.0578 H         1 <0>         0.1627
     24 H7          1.0949   -4.6066   -0.5797 H         1 <0>         0.1168
     25 H8         -0.6786   -4.7174   -0.4767 H         1 <0>         0.0926
     26 H9         -0.8333   -3.5099   -2.6745 H         1 <0>         0.0793
     27 H10         1.2317   -3.2987   -4.0308 H         1 <0>         0.0692
     28 H11         1.3484   -2.3398   -2.5358 H         1 <0>         0.0585
     29 H12         2.1938   -3.9012   -2.6599 H         1 <0>         0.0636
     30 H13        -0.8885   -5.9867   -2.5689 H         1 <0>         0.0602
     31 H14        -0.0747   -5.4284   -4.0502 H         1 <0>         0.0710
     32 H15         0.8875   -6.0309   -2.6792 H         1 <0>         0.0642
     33 H16        -4.2274   -1.7722    2.6350 H         1 <0>         0.3705
     34 H17        -3.2034   -3.0823    2.6679 H         1 <0>         0.3317
     35 H18        -2.1441   -3.8421    0.2977 H         1 <0>         0.4001
@<TRIPOS>BOND
     1    1    2 1
     2    1   18 1
     3    1   19 1
     4    1   20 1
     5    2   12 1
     6    2    3 2
     7    3    9 1
     8    3    4 1
     9    4    5 1
    10    4    6 2
    11    6    7 1
    12    7    8 1
    13    7   17 1
    14    7   21 1
    15    8    9 2
    16    8   35 1
    17    9   10 1
    18   10   11 1
    19   10   13 1
    20   11   12 2
    21   11   22 1
    22   12   23 1
    23   13   14 1
    24   13   24 1
    25   13   25 1
    26   14   15 1
    27   14   16 1
    28   14   26 1
    29   15   27 1
    30   15   28 1
    31   15   29 1
    32   16   30 1
    33   16   31 1
    34   16   32 1
    35   17   33 1
    36   17   34 1
@<TRIPOS>MOLECULE
CHEMBL21077
   46    48     0     0     0
SMALL
USER_CHARGES

@<TRIPOS>ATOM
      1 C1          2.5354   -0.7504   -0.3556 C.3       1 <0>        -0.1725
      2 C2          1.1949   -1.3057    0.1298 C.3       1 <0>         0.4028
      3 N1          0.1935   -1.1828   -0.9359 N.pl3     1 <0>        -0.6955
      4 C3         -1.0596   -0.9588   -0.6420 C.cat     1 <0>         0.7286
      5 N2         -1.4748   -0.7893    0.6248 N.2       1 <0>        -0.6367
      6 C4         -0.6092   -0.5904    1.6017 C.2       1 <0>         0.7316
      7 N3          0.7298   -0.5330    1.2921 N.pl3     1 <0>        -0.5936
      8 C5          1.6174    0.2326    2.0553 C.ar      1 <0>         0.1128
      9 C6          1.7484    1.5945    1.8114 C.ar      1 <0>        -0.1107
     10 C7          2.6251    2.3518    2.5641 C.ar      1 <0>        -0.0777
     11 C8          3.3742    1.7586    3.5619 C.ar      1 <0>        -0.1100
     12 C9          3.2478    0.3970    3.8116 C.ar      1 <0>        -0.0729
     13 C10         2.3635   -0.3656    3.0600 C.ar      1 <0>        -0.0938
     14 S1          4.2034   -0.3590    5.0843 S.3       1 <0>        -0.0772
     15 C11         5.1784    1.0076    5.7716 C.3       1 <0>        -0.0686
     16 C12         6.0522    0.4909    6.8854 C.ar      1 <0>        -0.0862
     17 C13         5.5785    0.4743    8.1840 C.ar      1 <0>        -0.0849
     18 C14         6.3794    0.0005    9.2060 C.ar      1 <0>        -0.1088
     19 C15         7.6553   -0.4572    8.9291 C.ar      1 <0>        -0.0225
     20 C16         8.1288   -0.4403    7.6292 C.ar      1 <0>        -0.1088
     21 C17         7.3249    0.0285    6.6073 C.ar      1 <0>        -0.0848
     22 Cl1         8.6621   -1.0519   10.2123 Cl        1 <0>        -0.0566
     23 N4         -1.0345   -0.4438    2.8927 N.pl3     1 <0>        -0.7693
     24 N5         -1.9852   -0.8938   -1.6639 N.pl3     1 <0>        -0.7920
     25 C18         1.3567   -2.7763    0.5195 C.3       1 <0>        -0.1817
     26 H1          3.2914   -0.9007    0.4150 H         1 <0>         0.1015
     27 H2          2.8358   -1.2699   -1.2655 H         1 <0>         0.0989
     28 H3          2.4339    0.3151   -0.5621 H         1 <0>         0.0833
     29 H4          1.1643    2.0615    1.0321 H         1 <0>         0.1295
     30 H5          2.7253    3.4098    2.3719 H         1 <0>         0.1423
     31 H6          4.0589    2.3533    4.1484 H         1 <0>         0.1367
     32 H7          2.2599   -1.4229    3.2546 H         1 <0>         0.1387
     33 H8          5.8036    1.4374    4.9889 H         1 <0>         0.1039
     34 H9          4.5071    1.7727    6.1615 H         1 <0>         0.1039
     35 H10         4.5827    0.8320    8.4001 H         1 <0>         0.1356
     36 H11         6.0094   -0.0121   10.2206 H         1 <0>         0.1400
     37 H12         9.1248   -0.7972    7.4125 H         1 <0>         0.1400
     38 H13         7.6926    0.0372    5.5918 H         1 <0>         0.1356
     39 H14        -1.9749   -0.5450    3.1080 H         1 <0>         0.4409
     40 H15        -0.3959   -0.2385    3.5934 H         1 <0>         0.4304
     41 H16        -1.7015   -1.0137   -2.5836 H         1 <0>         0.4290
     42 H17        -2.9195   -0.7282   -1.4622 H         1 <0>         0.4409
     43 H18         2.0937   -2.8616    1.3181 H         1 <0>         0.0969
     44 H19         0.3999   -3.1682    0.8647 H         1 <0>         0.0721
     45 H20         1.6919   -3.3469   -0.3466 H         1 <0>         0.0975
     46 H21         0.4635   -1.2681   -1.8636 H         1 <0>         0.4317
@<TRIPOS>BOND
     1    1    2 1
     2    1   26 1
     3    1   27 1
     4    1   28 1
     5    2    7 1
     6    2    3 1
     7    2   25 1
     8    3    4 2
     9    3   46 1
    10    4    5 1
    11    4   24 1
    12    5    6 2
    13    6    7 1
    14    6   23 1
    15    7    8 1
    16    8   13 ar
    17    8    9 ar
    18    9   10 ar
    19    9   29 1
    20   10   11 ar
    21   10   30 1
    22   11   12 ar
    23   11   31 1
    24   12   13 ar
    25   12   14 1
    26   13   32 1
    27   14   15 1
    28   15   16 1
    29   15   33 1
    30   15   34 1
    31   16   21 ar
    32   16   17 ar
    33   17   18 ar
    34   17   35 1
    35   18   19 ar
    36   18   36 1
    37   19   20 ar
    38   19   22 1
    39   20   21 ar
    40   20   37 1
    41   21   38 1
    42   23   39 1
    43   23   40 1
    44   24   41 1
    45   24   42 1
    46   25   43 1
    47   25   44 1
    48   25   45 1
@<TRIPOS>MOLECULE
CHEMBL457906
   53    55     0     0     0
SMALL
USER_CHARGES

@<TRIPOS>ATOM
      1 C1         -0.0184    1.5028    0.0103 C.3       1 <0>        -0.1183
      2 C2          0.0021   -0.0041    0.0020 C.ar      1 <0>        -0.0571
      3 C3          0.0057   -0.6890   -1.1964 C.ar      1 <0>        -0.1205
      4 C4          0.0240   -2.0719   -1.2055 C.ar      1 <0>        -0.1093
      5 C5          0.0387   -2.7765   -0.0150 C.ar      1 <0>        -0.1266
      6 C6          0.0356   -2.1023    1.1890 C.ar      1 <0>        -0.1021
      7 C7          0.0231   -0.7085    1.2041 C.ar      1 <0>        -0.0497
      8 C8          0.0259    0.0220    2.4950 C.ar      1 <0>        -0.0647
      9 C9          1.1295   -0.0575    3.3414 C.ar      1 <0>        -0.0656
     10 C10         1.1274    0.6240    4.5415 C.ar      1 <0>        -0.1510
     11 C11         0.0323    1.3867    4.9079 C.ar      1 <0>        -0.0483
     12 C12        -1.0676    1.4724    4.0758 C.ar      1 <0>        -0.1977
     13 C13        -1.0765    0.7979    2.8652 C.ar      1 <0>         0.1487
     14 O1         -2.1546    0.8862    2.0436 O.3       1 <0>        -0.3013
     15 C14        -3.2440    1.6973    2.4877 C.3       1 <0>         0.0224
     16 C15         0.0392    2.1268    6.2206 C.3       1 <0>         0.0516
     17 C16         1.2056    3.1167    6.2418 C.3       1 <0>        -0.1453
     18 C17         0.1912    1.1656    7.3250 C.1       1 <0>        -0.0533
     19 C18         0.3125    0.3990    8.2059 C.1       1 <0>        -0.1865
     20 C19         0.4604   -0.5361    9.2803 C.ar      1 <0>        -0.1072
     21 C20         0.5782   -1.9036    9.0289 C.ar      1 <0>         0.2537
     22 N1          0.7137   -2.7358   10.0481 N.ar      1 <0>        -0.5686
     23 C21         0.7384   -2.2906   11.2965 C.ar      1 <0>         0.6663
     24 N2          0.6301   -1.0021   11.5844 N.ar      1 <0>        -0.5731
     25 C22         0.4968   -0.0995   10.6197 C.ar      1 <0>         0.5417
     26 N3          0.3896    1.2452   10.9244 N.pl3     1 <0>        -0.7683
     27 N4          0.8810   -3.1990   12.3297 N.pl3     1 <0>        -0.7887
     28 C23         0.5509   -2.4254    7.6154 C.3       1 <0>        -0.1395
     29 H1          1.0042    1.8801    0.0026 H         1 <0>         0.0685
     30 H2         -0.5455    1.8639   -0.8728 H         1 <0>         0.0673
     31 H3         -0.5286    1.8543    0.9071 H         1 <0>         0.0701
     32 H4         -0.0060   -0.1439   -2.1287 H         1 <0>         0.1246
     33 H5          0.0264   -2.6037   -2.1454 H         1 <0>         0.1240
     34 H6          0.0522   -3.8563   -0.0280 H         1 <0>         0.1234
     35 H7          0.0467   -2.6533    2.1177 H         1 <0>         0.1188
     36 H8          1.9857   -0.6520    3.0589 H         1 <0>         0.1334
     37 H9          1.9832    0.5615    5.1972 H         1 <0>         0.1222
     38 H10        -1.9192    2.0692    4.3671 H         1 <0>         0.1340
     39 H11        -4.0372    1.6814    1.7403 H         1 <0>         0.1050
     40 H12        -3.6261    1.3077    3.4313 H         1 <0>         0.0558
     41 H13        -2.8998    2.7217    2.6303 H         1 <0>         0.0585
     42 H14        -0.8994    2.6687    6.3371 H         1 <0>         0.1143
     43 H15         1.2105    3.6521    7.1913 H         1 <0>         0.0681
     44 H16         2.1442    2.5749    6.1253 H         1 <0>         0.0662
     45 H17         1.0930    3.8285    5.4240 H         1 <0>         0.0783
     46 H18         0.2883    1.8970   10.2133 H         1 <0>         0.4329
     47 H19         0.4157    1.5364   11.8493 H         1 <0>         0.4299
     48 H20         0.9612   -4.1459   12.1354 H         1 <0>         0.4311
     49 H21         0.9009   -2.8891   13.2487 H         1 <0>         0.4460
     50 H22         1.5657   -2.4529    7.2186 H         1 <0>         0.1207
     51 H23         0.1302   -3.4309    7.6073 H         1 <0>         0.1038
     52 H24        -0.0630   -1.7698    6.9978 H         1 <0>         0.1174
     53 H25         0.7960   -3.6875    9.8793 H         1 <0>         0.4439
@<TRIPOS>BOND
     1    1    2 1
     2    1   29 1
     3    1   30 1
     4    1   31 1
     5    2    7 ar
     6    2    3 ar
     7    3    4 ar
     8    3   32 1
     9    4    5 ar
    10    4   33 1
    11    5    6 ar
    12    5   34 1
    13    6    7 ar
    14    6   35 1
    15    7    8 1
    16    8   13 ar
    17    8    9 ar
    18    9   10 ar
    19    9   36 1
    20   10   11 ar
    21   10   37 1
    22   11   12 ar
    23   11   16 1
    24   12   13 ar
    25   12   38 1
    26   13   14 1
    27   14   15 1
    28   15   39 1
    29   15   40 1
    30   15   41 1
    31   16   17 1
    32   16   18 1
    33   16   42 1
    34   17   43 1
    35   17   44 1
    36   17   45 1
    37   18   19 3
    38   19   20 1
    39   20   25 ar
    40   20   21 ar
    41   21   22 ar
    42   21   28 1
    43   22   23 ar
    44   22   53 1
    45   23   24 ar
    46   23   27 1
    47   24   25 ar
    48   25   26 1
    49   26   46 1
    50   26   47 1
    51   27   48 1
    52   27   49 1
    53   28   50 1
    54   28   51 1
    55   28   52 1
@<TRIPOS>MOLECULE
CHEMBL457906__1
   52    54     0     0     0
SMALL
USER_CHARGES

@<TRIPOS>ATOM
      1 C1         -0.0184    1.5028    0.0103 C.3       1 <0>        -0.1173
      2 C2          0.0021   -0.0041    0.0020 C.ar      1 <0>        -0.0593
      3 C3          0.0057   -0.6890   -1.1964 C.ar      1 <0>        -0.1226
      4 C4          0.0240   -2.0719   -1.2055 C.ar      1 <0>        -0.1144
      5 C5          0.0387   -2.7765   -0.0150 C.ar      1 <0>        -0.1271
      6 C6          0.0356   -2.1023    1.1890 C.ar      1 <0>        -0.1023
      7 C7          0.0231   -0.7085    1.2041 C.ar      1 <0>        -0.0395
      8 C8          0.0259    0.0220    2.4950 C.ar      1 <0>        -0.0768
      9 C9          1.1295   -0.0575    3.3414 C.ar      1 <0>        -0.0660
     10 C10         1.1274    0.6240    4.5415 C.ar      1 <0>        -0.1452
     11 C11         0.0323    1.3867    4.9079 C.ar      1 <0>        -0.0339
     12 C12        -1.0676    1.4724    4.0758 C.ar      1 <0>        -0.2002
     13 C13        -1.0765    0.7979    2.8652 C.ar      1 <0>         0.1444
     14 O1         -2.1546    0.8862    2.0436 O.3       1 <0>        -0.3050
     15 C14        -3.2440    1.6973    2.4877 C.3       1 <0>         0.0234
     16 C15         0.0392    2.1268    6.2206 C.3       1 <0>         0.0687
     17 C16         1.2056    3.1167    6.2418 C.3       1 <0>        -0.1419
     18 C17         0.1912    1.1656    7.3250 C.1       1 <0>        -0.1720
     19 C18         0.3125    0.3990    8.2059 C.1       1 <0>        -0.1010
     20 C19         0.4604   -0.5361    9.2803 C.ar      1 <0>        -0.2166
     21 C20         0.5782   -1.9036    9.0289 C.ar      1 <0>         0.2720
     22 N1          0.7137   -2.7358   10.0481 N.ar      1 <0>        -0.6038
     23 C21         0.7388   -2.2906   11.2965 C.ar      1 <0>         0.6144
     24 N2          0.6306   -1.0021   11.5843 N.ar      1 <0>        -0.6304
     25 C22         0.4968   -0.0995   10.6197 C.ar      1 <0>         0.5043
     26 N3          0.3896    1.2452   10.9244 N.pl3     1 <0>        -0.8247
     27 N4          0.8819   -3.1989   12.3297 N.pl3     1 <0>        -0.8157
     28 C23         0.5509   -2.4254    7.6154 C.3       1 <0>        -0.1074
     29 H1          1.0042    1.8801    0.0026 H         1 <0>         0.0672
     30 H2         -0.5455    1.8639   -0.8728 H         1 <0>         0.0645
     31 H3         -0.5286    1.8543    0.9071 H         1 <0>         0.0723
     32 H4         -0.0060   -0.1439   -2.1287 H         1 <0>         0.1220
     33 H5          0.0264   -2.6037   -2.1454 H         1 <0>         0.1213
     34 H6          0.0522   -3.8563   -0.0280 H         1 <0>         0.1219
     35 H7          0.0467   -2.6533    2.1177 H         1 <0>         0.1206
     36 H8          1.9857   -0.6520    3.0589 H         1 <0>         0.1307
     37 H9          1.9832    0.5615    5.1972 H         1 <0>         0.1239
     38 H10        -1.9192    2.0692    4.3671 H         1 <0>         0.1318
     39 H11        -4.0372    1.6814    1.7403 H         1 <0>         0.1013
     40 H12        -3.6261    1.3077    3.4313 H         1 <0>         0.0561
     41 H13        -2.8998    2.7217    2.6303 H         1 <0>         0.0568
     42 H14        -0.8994    2.6687    6.3371 H         1 <0>         0.1000
     43 H15         2.1442    2.5749    6.1253 H         1 <0>         0.0626
     44 H16         1.0930    3.8285    5.4240 H         1 <0>         0.0678
     45 H17         1.2105    3.6521    7.1913 H         1 <0>         0.0653
     46 H18         0.2883    1.8970   10.2133 H         1 <0>         0.4142
     47 H19         0.4157    1.5364   11.8493 H         1 <0>         0.4090
     48 H20         0.9621   -4.1458   12.1354 H         1 <0>         0.4169
     49 H21         0.9021   -2.8889   13.2486 H         1 <0>         0.4150
     50 H22         1.5657   -2.4529    7.2186 H         1 <0>         0.0879
     51 H23         0.1302   -3.4309    7.6073 H         1 <0>         0.0851
     52 H24        -0.0630   -1.7698    6.9978 H         1 <0>         0.0814
@<TRIPOS>BOND
     1    1    2 1
     2    1   29 1
     3    1   30 1
     4    1   31 1
     5    2    7 ar
     6    2    3 ar
     7    3    4 ar
     8    3   32 1
     9    4    5 ar
    10    4   33 1
    11    5    6 ar
    12    5   34 1
    13    6    7 ar
    14    6   35 1
    15    7    8 1
    16    8   13 ar
    17    8    9 ar
    18    9   10 ar
    19    9   36 1
    20   10   11 ar
    21   10   37 1
    22   11   12 ar
    23   11   16 1
    24   12   13 ar
    25   12   38 1
    26   13   14 1
    27   14   15 1
    28   15   39 1
    29   15   40 1
    30   15   41 1
    31   16   17 1
    32   16   18 1
    33   16   42 1
    34   17   43 1
    35   17   44 1
    36   17   45 1
    37   18   19 3
    38   19   20 1
    39   20   25 ar
    40   20   21 ar
    41   21   22 ar
    42   21   28 1
    43   22   23 ar
    44   23   24 ar
    45   23   27 1
    46   24   25 ar
    47   25   26 1
    48   26   46 1
    49   26   47 1
    50   27   48 1
    51   27   49 1
    52   28   50 1
    53   28   51 1
    54   28   52 1
@<TRIPOS>MOLECULE
CHEMBL457906__2
   53    55     0     0     0
SMALL
USER_CHARGES

@<TRIPOS>ATOM
      1 C1         -0.0184    1.5028    0.0103 C.3       1 <0>        -0.1154
      2 C2          0.0021   -0.0041    0.0020 C.ar      1 <0>        -0.0608
      3 C3          0.0057   -0.6890   -1.1964 C.ar      1 <0>        -0.1218
      4 C4          0.0240   -2.0719   -1.2055 C.ar      1 <0>        -0.1098
      5 C5          0.0387   -2.7765   -0.0150 C.ar      1 <0>        -0.1245
      6 C6          0.0356   -2.1023    1.1890 C.ar      1 <0>        -0.1005
      7 C7          0.0231   -0.7085    1.2041 C.ar      1 <0>        -0.0487
      8 C8          0.0259    0.0220    2.4950 C.ar      1 <0>        -0.0648
      9 C9          1.1295   -0.0575    3.3414 C.ar      1 <0>        -0.0660
     10 C10         1.1274    0.6240    4.5415 C.ar      1 <0>        -0.1467
     11 C11         0.0323    1.3867    4.9079 C.ar      1 <0>        -0.0486
     12 C12        -1.0676    1.4724    4.0758 C.ar      1 <0>        -0.1977
     13 C13        -1.0765    0.7979    2.8652 C.ar      1 <0>         0.1474
     14 O1         -2.1546    0.8862    2.0436 O.3       1 <0>        -0.3016
     15 C14        -3.2440    1.6973    2.4877 C.3       1 <0>         0.0225
     16 C15         0.0392    2.1268    6.2206 C.3       1 <0>         0.0513
     17 C16         0.1972    1.1277    7.3685 C.3       1 <0>        -0.1457
     18 C17         1.1614    3.0792    6.2410 C.1       1 <0>        -0.0536
     19 C18         2.0564    3.8388    6.2573 C.1       1 <0>        -0.1859
     20 C19         3.1480    4.7653    6.2772 C.ar      1 <0>        -0.1078
     21 C20         4.0078    4.8833    5.1844 C.ar      1 <0>         0.2554
     22 N1          5.0046    5.7509    5.2407 N.ar      1 <0>        -0.5684
     23 C21         5.1963    6.5043    6.3145 C.ar      1 <0>         0.6663
     24 N2          4.4069    6.4279    7.3755 N.ar      1 <0>        -0.5733
     25 C22         3.3796    5.5868    7.3986 C.ar      1 <0>         0.5414
     26 N3          2.5548    5.5141    8.5062 N.pl3     1 <0>        -0.7694
     27 N4          6.2528    7.3969    6.3275 N.pl3     1 <0>        -0.7887
     28 C23         3.8037    4.0332    3.9569 C.3       1 <0>        -0.1407
     29 H1          1.0042    1.8801    0.0026 H         1 <0>         0.0644
     30 H2         -0.5455    1.8639   -0.8728 H         1 <0>         0.0662
     31 H3         -0.5286    1.8543    0.9071 H         1 <0>         0.0698
     32 H4         -0.0060   -0.1439   -2.1287 H         1 <0>         0.1233
     33 H5          0.0264   -2.6037   -2.1454 H         1 <0>         0.1239
     34 H6          0.0522   -3.8563   -0.0280 H         1 <0>         0.1246
     35 H7          0.0467   -2.6533    2.1177 H         1 <0>         0.1219
     36 H8          1.9857   -0.6520    3.0589 H         1 <0>         0.1331
     37 H9          1.9832    0.5615    5.1972 H         1 <0>         0.1239
     38 H10        -1.9192    2.0692    4.3671 H         1 <0>         0.1334
     39 H11        -4.0372    1.6814    1.7403 H         1 <0>         0.1048
     40 H12        -3.6261    1.3077    3.4313 H         1 <0>         0.0583
     41 H13        -2.8998    2.7217    2.6303 H         1 <0>         0.0558
     42 H14        -0.8994    2.6687    6.3371 H         1 <0>         0.1132
     43 H15        -0.6338    0.4225    7.3534 H         1 <0>         0.0785
     44 H16         1.1358    0.5859    7.2520 H         1 <0>         0.0671
     45 H17         0.2022    1.6631    8.3180 H         1 <0>         0.0668
     46 H18         1.8091    4.8938    8.5158 H         1 <0>         0.4329
     47 H19         2.7218    6.0835    9.2735 H         1 <0>         0.4299
     48 H20         6.8401    7.4646    5.5585 H         1 <0>         0.4312
     49 H21         6.4064    7.9552    7.1057 H         1 <0>         0.4460
     50 H22         3.1459    4.5529    3.2603 H         1 <0>         0.1207
     51 H23         4.7657    3.8482    3.4790 H         1 <0>         0.1039
     52 H24         3.3519    3.0836    4.2436 H         1 <0>         0.1186
     53 H25         5.6053    5.8371    4.4840 H         1 <0>         0.4439
@<TRIPOS>BOND
     1    1    2 1
     2    1   29 1
     3    1   30 1
     4    1   31 1
     5    2    7 ar
     6    2    3 ar
     7    3    4 ar
     8    3   32 1
     9    4    5 ar
    10    4   33 1
    11    5    6 ar
    12    5   34 1
    13    6    7 ar
    14    6   35 1
    15    7    8 1
    16    8   13 ar
    17    8    9 ar
    18    9   10 ar
    19    9   36 1
    20   10   11 ar
    21   10   37 1
    22   11   12 ar
    23   11   16 1
    24   12   13 ar
    25   12   38 1
    26   13   14 1
    27   14   15 1
    28   15   39 1
    29   15   40 1
    30   15   41 1
    31   16   17 1
    32   16   18 1
    33   16   42 1
    34   17   43 1
    35   17   44 1
    36   17   45 1
    37   18   19 3
    38   19   20 1
    39   20   25 ar
    40   20   21 ar
    41   21   22 ar
    42   21   28 1
    43   22   23 ar
    44   22   53 1
    45   23   24 ar
    46   23   27 1
    47   24   25 ar
    48   25   26 1
    49   26   46 1
    50   26   47 1
    51   27   48 1
    52   27   49 1
    53   28   50 1
    54   28   51 1
    55   28   52 1
@<TRIPOS>MOLECULE
CHEMBL457906__3
   52    54     0     0     0
SMALL
USER_CHARGES

@<TRIPOS>ATOM
      1 C1         -0.0184    1.5028    0.0103 C.3       1 <0>        -0.1174
      2 C2          0.0021   -0.0041    0.0020 C.ar      1 <0>        -0.0589
      3 C3          0.0057   -0.6890   -1.1964 C.ar      1 <0>        -0.1228
      4 C4          0.0240   -2.0719   -1.2055 C.ar      1 <0>        -0.1146
      5 C5          0.0387   -2.7765   -0.0150 C.ar      1 <0>        -0.1272
      6 C6          0.0356   -2.1023    1.1890 C.ar      1 <0>        -0.1021
      7 C7          0.0231   -0.7085    1.2041 C.ar      1 <0>        -0.0393
      8 C8          0.0259    0.0220    2.4950 C.ar      1 <0>        -0.0761
      9 C9          1.1295   -0.0575    3.3414 C.ar      1 <0>        -0.0657
     10 C10         1.1274    0.6240    4.5415 C.ar      1 <0>        -0.1408
     11 C11         0.0323    1.3867    4.9079 C.ar      1 <0>        -0.0354
     12 C12        -1.0676    1.4724    4.0758 C.ar      1 <0>        -0.2002
     13 C13        -1.0765    0.7979    2.8652 C.ar      1 <0>         0.1430
     14 O1         -2.1546    0.8862    2.0436 O.3       1 <0>        -0.3050
     15 C14        -3.2440    1.6973    2.4877 C.3       1 <0>         0.0237
     16 C15         0.0392    2.1268    6.2206 C.3       1 <0>         0.0690
     17 C16         0.1972    1.1277    7.3685 C.3       1 <0>        -0.1421
     18 C17         1.1614    3.0792    6.2410 C.1       1 <0>        -0.1721
     19 C18         2.0564    3.8388    6.2573 C.1       1 <0>        -0.1008
     20 C19         3.1480    4.7653    6.2772 C.ar      1 <0>        -0.2165
     21 C20         4.0078    4.8833    5.1844 C.ar      1 <0>         0.2737
     22 N1          5.0046    5.7509    5.2407 N.ar      1 <0>        -0.6035
     23 C21         5.1961    6.5046    6.3143 C.ar      1 <0>         0.6143
     24 N2          4.4066    6.4282    7.3753 N.ar      1 <0>        -0.6306
     25 C22         3.3796    5.5868    7.3986 C.ar      1 <0>         0.5031
     26 N3          2.5548    5.5141    8.5062 N.pl3     1 <0>        -0.8256
     27 N4          6.2523    7.3975    6.3272 N.pl3     1 <0>        -0.8157
     28 C23         3.8037    4.0332    3.9569 C.3       1 <0>        -0.1073
     29 H1          1.0042    1.8801    0.0026 H         1 <0>         0.0674
     30 H2         -0.5455    1.8639   -0.8728 H         1 <0>         0.0642
     31 H3         -0.5286    1.8543    0.9071 H         1 <0>         0.0722
     32 H4         -0.0060   -0.1439   -2.1287 H         1 <0>         0.1217
     33 H5          0.0264   -2.6037   -2.1454 H         1 <0>         0.1210
     34 H6          0.0522   -3.8563   -0.0280 H         1 <0>         0.1219
     35 H7          0.0467   -2.6533    2.1177 H         1 <0>         0.1213
     36 H8          1.9857   -0.6520    3.0589 H         1 <0>         0.1310
     37 H9          1.9832    0.5615    5.1972 H         1 <0>         0.1254
     38 H10        -1.9192    2.0692    4.3671 H         1 <0>         0.1309
     39 H11        -4.0372    1.6814    1.7403 H         1 <0>         0.1009
     40 H12        -3.6261    1.3077    3.4313 H         1 <0>         0.0562
     41 H13        -2.8998    2.7217    2.6303 H         1 <0>         0.0559
     42 H14        -0.8994    2.6687    6.3371 H         1 <0>         0.0981
     43 H15         1.1358    0.5859    7.2520 H         1 <0>         0.0638
     44 H16         0.2022    1.6631    8.3180 H         1 <0>         0.0635
     45 H17        -0.6338    0.4225    7.3534 H         1 <0>         0.0680
     46 H18         1.8091    4.8938    8.5158 H         1 <0>         0.4142
     47 H19         2.7218    6.0835    9.2735 H         1 <0>         0.4091
     48 H20         6.8396    7.4652    5.5582 H         1 <0>         0.4170
     49 H21         6.4057    7.9561    7.1052 H         1 <0>         0.4149
     50 H22         3.1459    4.5529    3.2603 H         1 <0>         0.0874
     51 H23         4.7657    3.8482    3.4790 H         1 <0>         0.0847
     52 H24         3.3519    3.0836    4.2436 H         1 <0>         0.0823
@<TRIPOS>BOND
     1    1    2 1
     2    1   29 1
     3    1   30 1
     4    1   31 1
     5    2    7 ar
     6    2    3 ar
     7    3    4 ar
     8    3   32 1
     9    4    5 ar
    10    4   33 1
    11    5    6 ar
    12    5   34 1
    13    6    7 ar
    14    6   35 1
    15    7    8 1
    16    8   13 ar
    17    8    9 ar
    18    9   10 ar
    19    9   36 1
    20   10   11 ar
    21   10   37 1
    22   11   12 ar
    23   11   16 1
    24   12   13 ar
    25   12   38 1
    26   13   14 1
    27   14   15 1
    28   15   39 1
    29   15   40 1
    30   15   41 1
    31   16   17 1
    32   16   18 1
    33   16   42 1
    34   17   43 1
    35   17   44 1
    36   17   45 1
    37   18   19 3
    38   19   20 1
    39   20   25 ar
    40   20   21 ar
    41   21   22 ar
    42   21   28 1
    43   22   23 ar
    44   23   24 ar
    45   23   27 1
    46   24   25 ar
    47   25   26 1
    48   26   46 1
    49   26   47 1
    50   27   48 1
    51   27   49 1
    52   28   50 1
    53   28   51 1
    54   28   52 1
@<TRIPOS>MOLECULE
CHEMBL56977
   58    60     0     0     0
SMALL
USER_CHARGES

@<TRIPOS>ATOM
      1 C1         -0.0187    1.5258    0.0104 C.3       1 <0>        -0.1557
      2 C2          0.0021   -0.0041    0.0020 C.3       1 <0>        -0.1169
      3 C3          0.7421   -0.5109    1.2415 C.3       1 <0>        -0.0404
      4 C4          0.8719   -2.0337    1.1708 C.3       1 <0>        -0.0615
      5 C5          1.7468   -2.4096    0.0028 C.2       1 <0>        -0.1069
      6 C6          1.3442   -2.7392   -1.2318 C.2       1 <0>         0.0121
      7 O1          2.4096   -3.0133   -2.0068 O.3       1 <0>        -0.1585
      8 C7          3.5579   -2.8756   -1.3147 C.ar      1 <0>         0.2970
      9 C8          3.2114   -2.4824   -0.0143 C.ar      1 <0>        -0.2154
     10 C9          4.2194   -2.2563    0.9364 C.ar      1 <0>         0.4005
     11 C10         5.5393   -2.4311    0.5405 C.ar      1 <0>        -0.3130
     12 C11         5.8084   -2.8192   -0.7680 C.ar      1 <0>         0.5188
     13 N1          4.8360   -3.0328   -1.6395 N.ar      1 <0>        -0.5226
     14 N2          7.1287   -2.9944   -1.1668 N.pl3     1 <0>        -0.8234
     15 N3          3.9061   -1.8687    2.2343 N.pl3     1 <0>        -0.7969
     16 C12        -0.0298   -0.1295    2.4784 C.ar      1 <0>        -0.0852
     17 C13        -1.3227   -0.5902    2.6528 C.ar      1 <0>        -0.1234
     18 C14        -2.0348   -0.2447    3.7827 C.ar      1 <0>        -0.0612
     19 C15        -1.4482    0.5715    4.7511 C.ar      1 <0>        -0.0978
     20 C16        -0.1435    1.0328    4.5690 C.ar      1 <0>        -0.0812
     21 C17         0.5596    0.6753    3.4372 C.ar      1 <0>        -0.1238
     22 C18        -2.2056    0.9461    5.9643 C.2       1 <0>         0.5371
     23 O2         -3.3418    0.5432    6.1200 O.2       1 <0>        -0.5482
     24 N4         -1.6363    1.7343    6.8976 N.am      1 <0>        -0.6715
     25 C19        -2.3869    2.1056    8.0997 C.3       1 <0>         0.0724
     26 C20        -1.8381    3.4202    8.6579 C.3       1 <0>        -0.0831
     27 C21        -2.0961    4.5470    7.6556 C.3       1 <0>        -0.1768
     28 C22        -1.5556    5.8418    8.2054 C.2       1 <0>         0.4902
     29 O3         -1.0142    5.8616    9.2977 O.co2     1 <0>        -0.6961
     30 O4         -1.6597    6.8697    7.5580 O.co2     1 <0>        -0.7183
     31 C23        -2.2436    1.0210    9.1362 C.2       1 <0>         0.4987
     32 O5         -1.2298    0.3449    9.1750 O.co2     1 <0>        -0.7011
     33 O6         -3.1416    0.8197    9.9360 O.co2     1 <0>        -0.6961
     34 H1          1.0039    1.9031    0.0027 H         1 <0>         0.0506
     35 H2         -0.5459    1.8868   -0.8726 H         1 <0>         0.0551
     36 H3         -0.5289    1.8773    0.9072 H         1 <0>         0.0662
     37 H4         -1.0205   -0.3814    0.0098 H         1 <0>         0.0718
     38 H5          0.5123   -0.3556   -0.8948 H         1 <0>         0.0585
     39 H6          1.7350   -0.0630    1.2804 H         1 <0>         0.0768
     40 H7          1.3192   -2.4035    2.0935 H         1 <0>         0.0833
     41 H8         -0.1156   -2.4770    1.0426 H         1 <0>         0.1018
     42 H9          0.3153   -2.7791   -1.5574 H         1 <0>         0.2366
     43 H10         6.3462   -2.2676    1.2394 H         1 <0>         0.1812
     44 H11         7.8498   -2.8463   -0.5352 H         1 <0>         0.4409
     45 H12         7.3287   -3.2649   -2.0766 H         1 <0>         0.4191
     46 H13         2.9793   -1.7506    2.4948 H         1 <0>         0.4251
     47 H14         4.6144   -1.7164    2.8793 H         1 <0>         0.4257
     48 H15        -1.7756   -1.2213    1.9025 H         1 <0>         0.1227
     49 H16        -3.0441   -0.6047    3.9175 H         1 <0>         0.1369
     50 H17         0.3161    1.6647    5.3146 H         1 <0>         0.1322
     51 H18         1.5707    1.0280    3.2971 H         1 <0>         0.1207
     52 H19        -0.7296    2.0559    6.7733 H         1 <0>         0.3905
     53 H20        -3.4398    2.2296    7.8468 H         1 <0>         0.0796
     54 H21        -2.3357    3.6508    9.5999 H         1 <0>         0.0749
     55 H22        -0.7658    3.3233    8.8277 H         1 <0>         0.0601
     56 H23        -1.5985    4.3164    6.7136 H         1 <0>         0.0487
     57 H24        -3.1684    4.6438    7.4859 H         1 <0>         0.0535
     58 H25         5.0633   -3.3008   -2.5436 H         1 <0>         0.4357
@<TRIPOS>BOND
     1    1    2 1
     2    1   34 1
     3    1   35 1
     4    1   36 1
     5    2    3 1
     6    2   37 1
     7    2   38 1
     8    3    4 1
     9    3   16 1
    10    3   39 1
    11    4    5 1
    12    4   40 1
    13    4   41 1
    14    5    9 1
    15    5    6 2
    16    6    7 1
    17    6   42 1
    18    7    8 1
    19    8   13 ar
    20    8    9 ar
    21    9   10 ar
    22   10   11 ar
    23   10   15 1
    24   11   12 ar
    25   11   43 1
    26   12   13 ar
    27   12   14 1
    28   13   58 1
    29   14   44 1
    30   14   45 1
    31   15   46 1
    32   15   47 1
    33   16   21 ar
    34   16   17 ar
    35   17   18 ar
    36   17   48 1
    37   18   19 ar
    38   18   49 1
    39   19   20 ar
    40   19   22 1
    41   20   21 ar
    42   20   50 1
    43   21   51 1
    44   22   23 2
    45   22   24 am
    46   24   25 1
    47   24   52 1
    48   25   26 1
    49   25   31 1
    50   25   53 1
    51   26   27 1
    52   26   54 1
    53   26   55 1
    54   27   28 1
    55   27   56 1
    56   27   57 1
    57   28   29 2
    58   28   30 1
    59   31   32 2
    60   31   33 1
@<TRIPOS>MOLECULE
CHEMBL56977__1
   58    60     0     0     0
SMALL
USER_CHARGES

@<TRIPOS>ATOM
      1 C1         -0.0187    1.5258    0.0104 C.3       1 <0>        -0.1559
      2 C2          0.0021   -0.0041    0.0020 C.3       1 <0>        -0.1169
      3 C3          0.7421   -0.5109    1.2415 C.3       1 <0>        -0.0401
      4 C4          0.8719   -2.0337    1.1708 C.3       1 <0>        -0.0613
      5 C5          1.7468   -2.4096    0.0028 C.2       1 <0>        -0.1069
      6 C6          1.3442   -2.7392   -1.2318 C.2       1 <0>         0.0119
      7 O1          2.4096   -3.0133   -2.0068 O.3       1 <0>        -0.1586
      8 C7          3.5579   -2.8756   -1.3147 C.ar      1 <0>         0.2969
      9 C8          3.2114   -2.4824   -0.0143 C.ar      1 <0>        -0.2154
     10 C9          4.2194   -2.2563    0.9364 C.ar      1 <0>         0.4005
     11 C10         5.5393   -2.4311    0.5405 C.ar      1 <0>        -0.3129
     12 C11         5.8084   -2.8192   -0.7680 C.ar      1 <0>         0.5187
     13 N1          4.8360   -3.0328   -1.6395 N.ar      1 <0>        -0.5227
     14 N2          7.1287   -2.9944   -1.1668 N.pl3     1 <0>        -0.8234
     15 N3          3.9061   -1.8687    2.2343 N.pl3     1 <0>        -0.7967
     16 C12        -0.0298   -0.1295    2.4784 C.ar      1 <0>        -0.0862
     17 C13        -1.3227   -0.5902    2.6528 C.ar      1 <0>        -0.1233
     18 C14        -2.0348   -0.2447    3.7827 C.ar      1 <0>        -0.0614
     19 C15        -1.4482    0.5715    4.7511 C.ar      1 <0>        -0.0954
     20 C16        -0.1435    1.0328    4.5690 C.ar      1 <0>        -0.0821
     21 C17         0.5596    0.6753    3.4372 C.ar      1 <0>        -0.1240
     22 C18        -2.2056    0.9461    5.9643 C.2       1 <0>         0.5439
     23 O2         -3.3418    0.5432    6.1200 O.2       1 <0>        -0.5496
     24 N4         -1.6363    1.7343    6.8976 N.am      1 <0>        -0.6720
     25 C19        -2.3869    2.1056    8.0997 C.3       1 <0>         0.0715
     26 C20        -1.4095    2.4327    9.2304 C.3       1 <0>        -0.0815
     27 C21        -0.6311    1.1721    9.6124 C.3       1 <0>        -0.1766
     28 C22         0.3316    1.4944   10.7261 C.2       1 <0>         0.4898
     29 O3          0.3898    2.6273   11.1730 O.co2     1 <0>        -0.6944
     30 O4          1.0524    0.6222   11.1804 O.co2     1 <0>        -0.7204
     31 C23        -3.2389    3.3136    7.8069 C.2       1 <0>         0.4954
     32 O5         -3.2208    3.8178    6.6970 O.co2     1 <0>        -0.6985
     33 O6         -3.9462    3.7868    8.6800 O.co2     1 <0>        -0.6949
     34 H1          1.0039    1.9031    0.0027 H         1 <0>         0.0501
     35 H2         -0.5459    1.8868   -0.8726 H         1 <0>         0.0550
     36 H3         -0.5289    1.8773    0.9072 H         1 <0>         0.0668
     37 H4         -1.0205   -0.3814    0.0098 H         1 <0>         0.0718
     38 H5          0.5123   -0.3556   -0.8948 H         1 <0>         0.0582
     39 H6          1.7350   -0.0630    1.2804 H         1 <0>         0.0765
     40 H7          1.3192   -2.4035    2.0935 H         1 <0>         0.0832
     41 H8         -0.1156   -2.4770    1.0426 H         1 <0>         0.1017
     42 H9          0.3153   -2.7791   -1.5574 H         1 <0>         0.2365
     43 H10         6.3462   -2.2676    1.2394 H         1 <0>         0.1814
     44 H11         7.8498   -2.8463   -0.5352 H         1 <0>         0.4410
     45 H12         7.3287   -3.2649   -2.0766 H         1 <0>         0.4190
     46 H13         2.9793   -1.7506    2.4948 H         1 <0>         0.4250
     47 H14         4.6144   -1.7164    2.8793 H         1 <0>         0.4260
     48 H15        -1.7756   -1.2213    1.9025 H         1 <0>         0.1223
     49 H16        -3.0441   -0.6047    3.9175 H         1 <0>         0.1367
     50 H17         0.3161    1.6647    5.3146 H         1 <0>         0.1312
     51 H18         1.5707    1.0280    3.2971 H         1 <0>         0.1201
     52 H19        -0.7296    2.0559    6.7733 H         1 <0>         0.3882
     53 H20        -3.0254    1.2749    8.4003 H         1 <0>         0.0795
     54 H21        -0.7134    3.2027    8.8976 H         1 <0>         0.0552
     55 H22        -1.9638    2.7939   10.0967 H         1 <0>         0.0815
     56 H23        -1.3271    0.4022    9.9452 H         1 <0>         0.0528
     57 H24        -0.0768    0.8109    8.7462 H         1 <0>         0.0472
     58 H25         5.0633   -3.3008   -2.5436 H         1 <0>         0.4357
@<TRIPOS>BOND
     1    1    2 1
     2    1   34 1
     3    1   35 1
     4    1   36 1
     5    2    3 1
     6    2   37 1
     7    2   38 1
     8    3    4 1
     9    3   16 1
    10    3   39 1
    11    4    5 1
    12    4   40 1
    13    4   41 1
    14    5    9 1
    15    5    6 2
    16    6    7 1
    17    6   42 1
    18    7    8 1
    19    8   13 ar
    20    8    9 ar
    21    9   10 ar
    22   10   11 ar
    23   10   15 1
    24   11   12 ar
    25   11   43 1
    26   12   13 ar
    27   12   14 1
    28   13   58 1
    29   14   44 1
    30   14   45 1
    31   15   46 1
    32   15   47 1
    33   16   21 ar
    34   16   17 ar
    35   17   18 ar
    36   17   48 1
    37   18   19 ar
    38   18   49 1
    39   19   20 ar
    40   19   22 1
    41   20   21 ar
    42   20   50 1
    43   21   51 1
    44   22   23 2
    45   22   24 am
    46   24   25 1
    47   24   52 1
    48   25   26 1
    49   25   31 1
    50   25   53 1
    51   26   27 1
    52   26   54 1
    53   26   55 1
    54   27   28 1
    55   27   56 1
    56   27   57 1
    57   28   29 2
    58   28   30 1
    59   31   32 2
    60   31   33 1
@<TRIPOS>MOLECULE
CHEMBL56977__2
   58    60     0     0     0
SMALL
USER_CHARGES

@<TRIPOS>ATOM
      1 C1         -0.2565    1.3985    0.0014 C.3       1 <0>        -0.1597
      2 C2         -0.0424   -0.1165   -0.0067 C.3       1 <0>        -0.1228
      3 C3          0.8527   -0.5113    1.1697 C.3       1 <0>        -0.0417
      4 C4          0.1199   -0.2336    2.4838 C.3       1 <0>        -0.0566
      5 C5          1.0462   -0.5016    3.6418 C.2       1 <0>        -0.1208
      6 C6          1.0845   -1.6024    4.4046 C.2       1 <0>         0.0343
      7 O1          2.0428   -1.4815    5.3415 O.3       1 <0>        -0.1518
      8 C7          2.6754   -0.2962    5.2344 C.ar      1 <0>         0.3010
      9 C8          2.0925    0.3870    4.1579 C.ar      1 <0>        -0.2147
     10 C9          2.5621    1.6627    3.8066 C.ar      1 <0>         0.3984
     11 C10         3.6040    2.2009    4.5509 C.ar      1 <0>        -0.3133
     12 C11         4.1360    1.4637    5.6039 C.ar      1 <0>         0.5209
     13 N1          3.6665    0.2667    5.9161 N.ar      1 <0>        -0.5187
     14 N2          5.1792    2.0001    6.3500 N.pl3     1 <0>        -0.8222
     15 N3          2.0017    2.3653    2.7460 N.pl3     1 <0>        -0.8105
     16 C12         1.1829   -1.9789    1.0791 C.ar      1 <0>        -0.0821
     17 C13         0.1653   -2.9161    1.0956 C.ar      1 <0>        -0.1286
     18 C14         0.4608   -4.2612    1.0131 C.ar      1 <0>        -0.0619
     19 C15         1.7899   -4.6756    0.9127 C.ar      1 <0>        -0.0992
     20 C16         2.8117   -3.7249    0.8966 C.ar      1 <0>        -0.0822
     21 C17         2.5021   -2.3827    0.9741 C.ar      1 <0>        -0.1214
     22 C18         2.1139   -6.1154    0.8244 C.2       1 <0>         0.5368
     23 O2          1.2220   -6.9411    0.8390 O.2       1 <0>        -0.5475
     24 N4          3.3983   -6.5124    0.7275 N.am      1 <0>        -0.6720
     25 C19         3.7194   -7.9391    0.6400 C.3       1 <0>         0.0727
     26 C20         5.1411   -8.1743    1.1540 C.3       1 <0>        -0.0838
     27 C21         5.2072   -7.8353    2.6445 C.3       1 <0>        -0.1752
     28 C22         6.6075   -8.0670    3.1508 C.2       1 <0>         0.4900
     29 O3          7.4726   -8.4663    2.3900 O.co2     1 <0>        -0.6935
     30 O4          6.8755   -7.8552    4.3212 O.co2     1 <0>        -0.7211
     31 C23         3.6233   -8.3884   -0.7952 C.2       1 <0>         0.4974
     32 O5          3.8606   -7.6031   -1.6971 O.co2     1 <0>        -0.6989
     33 O6          3.3083   -9.5374   -1.0545 O.co2     1 <0>        -0.6959
     34 H1          0.7102    1.9020    0.0060 H         1 <0>         0.0505
     35 H2         -0.8145    1.6913   -0.8880 H         1 <0>         0.0639
     36 H3         -0.8178    1.6813    0.8919 H         1 <0>         0.0535
     37 H4         -1.0049   -0.6199    0.0841 H         1 <0>         0.0742
     38 H5          0.4349   -0.4110   -0.9413 H         1 <0>         0.0762
     39 H6          1.7735    0.0710    1.1370 H         1 <0>         0.0761
     40 H7         -0.2003    0.8080    2.5081 H         1 <0>         0.0804
     41 H8         -0.7520   -0.8835    2.5580 H         1 <0>         0.0997
     42 H9          0.4404   -2.4610    4.2851 H         1 <0>         0.2354
     43 H10         3.9962    3.1791    4.3151 H         1 <0>         0.1793
     44 H11         5.5279    2.8791    6.1341 H         1 <0>         0.4396
     45 H12         5.5583    1.4954    7.0865 H         1 <0>         0.4213
     46 H13         1.2274    2.0088    2.2831 H         1 <0>         0.4194
     47 H14         2.3850    3.2122    2.4688 H         1 <0>         0.4211
     48 H15        -0.8626   -2.5941    1.1737 H         1 <0>         0.1246
     49 H16        -0.3344   -4.9918    1.0264 H         1 <0>         0.1374
     50 H17         3.8420   -4.0391    0.8192 H         1 <0>         0.1302
     51 H18         3.2915   -1.6459    0.9574 H         1 <0>         0.1176
     52 H19         4.1100   -5.8535    0.7158 H         1 <0>         0.3899
     53 H20         3.0149   -8.5080    1.2468 H         1 <0>         0.0795
     54 H21         5.4124   -9.2197    1.0068 H         1 <0>         0.0754
     55 H22         5.8357   -7.5380    0.6055 H         1 <0>         0.0603
     56 H23         4.9359   -6.7899    2.7917 H         1 <0>         0.0469
     57 H24         4.5126   -8.4716    3.1930 H         1 <0>         0.0533
     58 H25         4.0647   -0.2178    6.6561 H         1 <0>         0.4392
@<TRIPOS>BOND
     1    1    2 1
     2    1   34 1
     3    1   35 1
     4    1   36 1
     5    2    3 1
     6    2   37 1
     7    2   38 1
     8    3    4 1
     9    3   16 1
    10    3   39 1
    11    4    5 1
    12    4   40 1
    13    4   41 1
    14    5    9 1
    15    5    6 2
    16    6    7 1
    17    6   42 1
    18    7    8 1
    19    8   13 ar
    20    8    9 ar
    21    9   10 ar
    22   10   11 ar
    23   10   15 1
    24   11   12 ar
    25   11   43 1
    26   12   13 ar
    27   12   14 1
    28   13   58 1
    29   14   44 1
    30   14   45 1
    31   15   46 1
    32   15   47 1
    33   16   21 ar
    34   16   17 ar
    35   17   18 ar
    36   17   48 1
    37   18   19 ar
    38   18   49 1
    39   19   20 ar
    40   19   22 1
    41   20   21 ar
    42   20   50 1
    43   21   51 1
    44   22   23 2
    45   22   24 am
    46   24   25 1
    47   24   52 1
    48   25   26 1
    49   25   31 1
    50   25   53 1
    51   26   27 1
    52   26   54 1
    53   26   55 1
    54   27   28 1
    55   27   56 1
    56   27   57 1
    57   28   29 2
    58   28   30 1
    59   31   32 2
    60   31   33 1
@<TRIPOS>MOLECULE
CHEMBL56977__3
   58    60     0     0     0
SMALL
USER_CHARGES

@<TRIPOS>ATOM
      1 C1         -0.2565    1.3985    0.0014 C.3       1 <0>        -0.1598
      2 C2         -0.0424   -0.1165   -0.0067 C.3       1 <0>        -0.1226
      3 C3          0.8527   -0.5113    1.1697 C.3       1 <0>        -0.0415
      4 C4          0.1199   -0.2336    2.4838 C.3       1 <0>        -0.0566
      5 C5          1.0462   -0.5016    3.6418 C.2       1 <0>        -0.1220
      6 C6          1.0845   -1.6024    4.4046 C.2       1 <0>         0.0371
      7 O1          2.0428   -1.4815    5.3415 O.3       1 <0>        -0.1512
      8 C7          2.6754   -0.2962    5.2344 C.ar      1 <0>         0.2992
      9 C8          2.0925    0.3870    4.1579 C.ar      1 <0>        -0.2140
     10 C9          2.5621    1.6627    3.8066 C.ar      1 <0>         0.3986
     11 C10         3.6040    2.2009    4.5509 C.ar      1 <0>        -0.3133
     12 C11         4.1360    1.4637    5.6039 C.ar      1 <0>         0.5201
     13 N1          3.6665    0.2667    5.9161 N.ar      1 <0>        -0.5186
     14 N2          5.1792    2.0001    6.3500 N.pl3     1 <0>        -0.8229
     15 N3          2.0017    2.3653    2.7460 N.pl3     1 <0>        -0.8101
     16 C12         1.1829   -1.9789    1.0791 C.ar      1 <0>        -0.0832
     17 C13         0.1653   -2.9161    1.0956 C.ar      1 <0>        -0.1286
     18 C14         0.4608   -4.2612    1.0131 C.ar      1 <0>        -0.0621
     19 C15         1.7899   -4.6756    0.9127 C.ar      1 <0>        -0.0968
     20 C16         2.8117   -3.7249    0.8966 C.ar      1 <0>        -0.0830
     21 C17         2.5021   -2.3827    0.9741 C.ar      1 <0>        -0.1216
     22 C18         2.1139   -6.1154    0.8244 C.2       1 <0>         0.5440
     23 O2          1.2220   -6.9411    0.8390 O.2       1 <0>        -0.5491
     24 N4          3.3983   -6.5124    0.7275 N.am      1 <0>        -0.6724
     25 C19         3.7194   -7.9391    0.6400 C.3       1 <0>         0.0714
     26 C20         5.0674   -8.1163   -0.0616 C.3       1 <0>        -0.0809
     27 C21         4.9553   -7.6370   -1.5103 C.3       1 <0>        -0.1776
     28 C22         6.2830   -7.8116   -2.2014 C.2       1 <0>         0.4898
     29 O3          7.2311   -8.2763   -1.5917 O.co2     1 <0>        -0.6959
     30 O4          6.4091   -7.4881   -3.3701 O.co2     1 <0>        -0.7180
     31 C23         3.7944   -8.5231    2.0272 C.2       1 <0>         0.4969
     32 O5          3.5979   -7.8134    2.9989 O.co2     1 <0>        -0.7020
     33 O6          4.0517   -9.7053    2.1778 O.co2     1 <0>        -0.6937
     34 H1          0.7102    1.9020    0.0060 H         1 <0>         0.0505
     35 H2         -0.8145    1.6913   -0.8880 H         1 <0>         0.0639
     36 H3         -0.8178    1.6813    0.8919 H         1 <0>         0.0534
     37 H4         -1.0049   -0.6199    0.0841 H         1 <0>         0.0741
     38 H5          0.4349   -0.4110   -0.9413 H         1 <0>         0.0761
     39 H6          1.7735    0.0710    1.1370 H         1 <0>         0.0759
     40 H7         -0.2003    0.8080    2.5081 H         1 <0>         0.0802
     41 H8         -0.7520   -0.8835    2.5580 H         1 <0>         0.0998
     42 H9          0.4404   -2.4610    4.2851 H         1 <0>         0.2359
     43 H10         3.9962    3.1791    4.3151 H         1 <0>         0.1792
     44 H11         5.5279    2.8791    6.1341 H         1 <0>         0.4395
     45 H12         5.5583    1.4954    7.0865 H         1 <0>         0.4207
     46 H13         1.2274    2.0088    2.2831 H         1 <0>         0.4196
     47 H14         2.3850    3.2122    2.4688 H         1 <0>         0.4211
     48 H15        -0.8626   -2.5941    1.1737 H         1 <0>         0.1242
     49 H16        -0.3344   -4.9918    1.0264 H         1 <0>         0.1371
     50 H17         3.8420   -4.0391    0.8192 H         1 <0>         0.1292
     51 H18         3.2915   -1.6459    0.9574 H         1 <0>         0.1171
     52 H19         4.1100   -5.8535    0.7158 H         1 <0>         0.3877
     53 H20         2.9436   -8.4519    0.0714 H         1 <0>         0.0800
     54 H21         5.8267   -7.5310    0.4570 H         1 <0>         0.0542
     55 H22         5.3484   -9.1694   -0.0481 H         1 <0>         0.0815
     56 H23         4.1960   -8.2224   -2.0289 H         1 <0>         0.0534
     57 H24         4.6743   -6.5840   -1.5239 H         1 <0>         0.0475
     58 H25         4.0647   -0.2178    6.6561 H         1 <0>         0.4385
@<TRIPOS>BOND
     1    1    2 1
     2    1   34 1
     3    1   35 1
     4    1   36 1
     5    2    3 1
     6    2   37 1
     7    2   38 1
     8    3    4 1
     9    3   16 1
    10    3   39 1
    11    4    5 1
    12    4   40 1
    13    4   41 1
    14    5    9 1
    15    5    6 2
    16    6    7 1
    17    6   42 1
    18    7    8 1
    19    8   13 ar
    20    8    9 ar
    21    9   10 ar
    22   10   11 ar
    23   10   15 1
    24   11   12 ar
    25   11   43 1
    26   12   13 ar
    27   12   14 1
    28   13   58 1
    29   14   44 1
    30   14   45 1
    31   15   46 1
    32   15   47 1
    33   16   21 ar
    34   16   17 ar
    35   17   18 ar
    36   17   48 1
    37   18   19 ar
    38   18   49 1
    39   19   20 ar
    40   19   22 1
    41   20   21 ar
    42   20   50 1
    43   21   51 1
    44   22   23 2
    45   22   24 am
    46   24   25 1
    47   24   52 1
    48   25   26 1
    49   25   31 1
    50   25   53 1
    51   26   27 1
    52   26   54 1
    53   26   55 1
    54   27   28 1
    55   27   56 1
    56   27   57 1
    57   28   29 2
    58   28   30 1
    59   31   32 2
    60   31   33 1
@<TRIPOS>MOLECULE
CHEMBL59843
   50    52     0     0     0
SMALL
USER_CHARGES

@<TRIPOS>ATOM
      1 C1         -0.0167    1.3794    0.0096 C.ar      1 <0>        -0.1238
      2 C2          1.1667    2.0884    0.0021 C.ar      1 <0>        -0.0647
      3 C3          2.3848    1.4070   -0.0132 C.ar      1 <0>        -0.1133
      4 C4          2.3966    0.0113   -0.0208 C.ar      1 <0>        -0.0844
      5 C5          1.2061   -0.6856   -0.0132 C.ar      1 <0>        -0.1247
      6 C6          0.0021   -0.0041    0.0020 C.ar      1 <0>        -0.0744
      7 C7         -1.2946   -0.7719    0.0103 C.3       1 <0>        -0.0649
      8 C8         -1.7472   -1.0241   -1.4293 C.3       1 <0>        -0.0476
      9 C9         -3.0439   -1.7919   -1.4210 C.2       1 <0>        -0.0690
     10 C10        -3.1874   -3.1243   -1.5149 C.2       1 <0>        -0.0060
     11 N1         -4.5199   -3.4490   -1.4706 N.pl3     1 <0>        -0.5466
     12 H1         -4.8743   -4.3506   -1.5205 H         1 <0>         0.4185
     13 C11        -5.2735   -2.3188   -1.3457 C.2       1 <0>         0.3387
     14 C12        -4.3891   -1.2318   -1.3029 C.2       1 <0>        -0.3095
     15 C13        -4.9114    0.0734   -1.1697 C.2       1 <0>         0.5796
     16 N2         -6.2531    0.2199   -1.0850 N.am      1 <0>        -0.6639
     17 C14        -7.0662   -0.8739   -1.1282 C.2       1 <0>         0.6510
     18 N3         -6.5925   -2.0918   -1.2601 N.2       1 <0>        -0.5926
     19 N4         -8.4240   -0.6956   -1.0397 N.pl3     1 <0>        -0.8264
     20 O1         -4.1725    1.0422   -1.1315 O.2       1 <0>        -0.5176
     21 C15         3.6569    2.1603   -0.0218 C.2       1 <0>         0.5440
     22 O2          3.6435    3.3757   -0.0155 O.2       1 <0>        -0.5540
     23 N5          4.8314    1.4994   -0.0366 N.am      1 <0>        -0.6761
     24 C16         6.0919    2.2459   -0.0451 C.3       1 <0>         0.0737
     25 C17         7.1909    1.3839   -0.6698 C.3       1 <0>        -0.0820
     26 C18         6.8626    1.1271   -2.1419 C.3       1 <0>        -0.1773
     27 C19         7.9450    0.2781   -2.7573 C.2       1 <0>         0.4913
     28 O3          8.8913   -0.0876   -2.0810 O.co2     1 <0>        -0.6979
     29 O4          7.8745   -0.0430   -3.9313 O.co2     1 <0>        -0.7197
     30 C20         6.4748    2.6012    1.3685 C.2       1 <0>         0.4984
     31 O5          6.1458    1.8742    2.2903 O.co2     1 <0>        -0.6988
     32 O6          7.1137    3.6157    1.5903 O.co2     1 <0>        -0.7018
     33 H2         -0.9598    1.9054    0.0260 H         1 <0>         0.1242
     34 H3          1.1508    3.1682    0.0077 H         1 <0>         0.1322
     35 H4          3.3358   -0.5219   -0.0330 H         1 <0>         0.1284
     36 H5          1.2138   -1.7656   -0.0191 H         1 <0>         0.1232
     37 H6         -1.1489   -1.7256    0.5176 H         1 <0>         0.0685
     38 H7         -2.0557   -0.1941    0.5345 H         1 <0>         0.0710
     39 H8         -1.8929   -0.0704   -1.9367 H         1 <0>         0.0815
     40 H9         -0.9861   -1.6019   -1.9536 H         1 <0>         0.0747
     41 H10        -2.3774   -3.8321   -1.6109 H         1 <0>         0.1802
     42 H11        -8.7910    0.1976   -0.9480 H         1 <0>         0.4143
     43 H12        -9.0168   -1.4628   -1.0688 H         1 <0>         0.4255
     44 H13         4.8421    0.5294   -0.0416 H         1 <0>         0.3913
     45 H14         5.9699    3.1583   -0.6287 H         1 <0>         0.0776
     46 H15         8.1462    1.9034   -0.5958 H         1 <0>         0.0722
     47 H16         7.2523    0.4333   -0.1400 H         1 <0>         0.0600
     48 H17         5.9072    0.6076   -2.2159 H         1 <0>         0.0515
     49 H18         6.8012    2.0777   -2.6717 H         1 <0>         0.0527
     50 H19        -6.6381    1.1054   -0.9929 H         1 <0>         0.4126
@<TRIPOS>BOND
     1    1    6 ar
     2    1    2 ar
     3    1   33 1
     4    2    3 ar
     5    2   34 1
     6    3    4 ar
     7    3   21 1
     8    4    5 ar
     9    4   35 1
    10    5    6 ar
    11    5   36 1
    12    6    7 1
    13    7    8 1
    14    7   37 1
    15    7   38 1
    16    8    9 1
    17    8   39 1
    18    8   40 1
    19    9   14 1
    20    9   10 2
    21   10   11 1
    22   10   41 1
    23   11   12 1
    24   11   13 1
    25   13   18 1
    26   13   14 2
    27   14   15 1
    28   15   16 am
    29   15   20 2
    30   16   17 1
    31   16   50 1
    32   17   18 2
    33   17   19 1
    34   19   42 1
    35   19   43 1
    36   21   22 2
    37   21   23 am
    38   23   24 1
    39   23   44 1
    40   24   25 1
    41   24   30 1
    42   24   45 1
    43   25   26 1
    44   25   46 1
    45   25   47 1
    46   26   27 1
    47   26   48 1
    48   26   49 1
    49   27   28 2
    50   27   29 1
    51   30   31 2
    52   30   32 1
@<TRIPOS>MOLECULE
CHEMBL59843__1
   50    52     0     0     0
SMALL
USER_CHARGES

@<TRIPOS>ATOM
      1 C1         -0.0167    1.3794    0.0096 C.ar      1 <0>        -0.1237
      2 C2          1.1667    2.0884    0.0021 C.ar      1 <0>        -0.0650
      3 C3          2.3848    1.4070   -0.0132 C.ar      1 <0>        -0.1108
      4 C4          2.3966    0.0113   -0.0208 C.ar      1 <0>        -0.0853
      5 C5          1.2061   -0.6856   -0.0132 C.ar      1 <0>        -0.1248
      6 C6          0.0021   -0.0041    0.0020 C.ar      1 <0>        -0.0756
      7 C7         -1.2946   -0.7719    0.0103 C.3       1 <0>        -0.0645
      8 C8         -1.7472   -1.0241   -1.4293 C.3       1 <0>        -0.0478
      9 C9         -3.0439   -1.7919   -1.4210 C.2       1 <0>        -0.0685
     10 C10        -3.1874   -3.1243   -1.5149 C.2       1 <0>        -0.0065
     11 N1         -4.5199   -3.4490   -1.4706 N.pl3     1 <0>        -0.5467
     12 H1         -4.8743   -4.3506   -1.5205 H         1 <0>         0.4184
     13 C11        -5.2735   -2.3188   -1.3457 C.2       1 <0>         0.3387
     14 C12        -4.3891   -1.2318   -1.3029 C.2       1 <0>        -0.3095
     15 C13        -4.9114    0.0734   -1.1697 C.2       1 <0>         0.5795
     16 N2         -6.2531    0.2199   -1.0850 N.am      1 <0>        -0.6639
     17 C14        -7.0662   -0.8739   -1.1282 C.2       1 <0>         0.6510
     18 N3         -6.5925   -2.0918   -1.2601 N.2       1 <0>        -0.5926
     19 N4         -8.4240   -0.6956   -1.0397 N.pl3     1 <0>        -0.8264
     20 O1         -4.1725    1.0422   -1.1315 O.2       1 <0>        -0.5172
     21 C15         3.6569    2.1603   -0.0218 C.2       1 <0>         0.5510
     22 O2          3.6435    3.3757   -0.0155 O.2       1 <0>        -0.5556
     23 N5          4.8314    1.4994   -0.0366 N.am      1 <0>        -0.6767
     24 C16         6.0919    2.2459   -0.0451 C.3       1 <0>         0.0726
     25 C17         7.2027    1.3778    0.5494 C.3       1 <0>        -0.0801
     26 C18         6.9032    1.1060    2.0250 C.3       1 <0>        -0.1779
     27 C19         7.9973    0.2510    2.6105 C.2       1 <0>         0.4911
     28 O3          8.9302   -0.1078    1.9123 O.co2     1 <0>        -0.6973
     29 O4          7.9496   -0.0820    3.7824 O.co2     1 <0>        -0.7205
     30 C20         6.4472    2.6155   -1.4622 C.2       1 <0>         0.4957
     31 O5          5.7154    2.2860   -2.3799 O.co2     1 <0>        -0.6965
     32 O6          7.4666    3.2441   -1.6909 O.co2     1 <0>        -0.7009
     33 H2         -0.9598    1.9054    0.0260 H         1 <0>         0.1238
     34 H3          1.1508    3.1682    0.0077 H         1 <0>         0.1319
     35 H4          3.3358   -0.5219   -0.0330 H         1 <0>         0.1274
     36 H5          1.2138   -1.7656   -0.0191 H         1 <0>         0.1227
     37 H6         -1.1489   -1.7256    0.5176 H         1 <0>         0.0683
     38 H7         -2.0557   -0.1941    0.5345 H         1 <0>         0.0708
     39 H8         -1.8929   -0.0704   -1.9367 H         1 <0>         0.0817
     40 H9         -0.9861   -1.6019   -1.9536 H         1 <0>         0.0745
     41 H10        -2.3774   -3.8321   -1.6109 H         1 <0>         0.1800
     42 H11        -8.7910    0.1976   -0.9480 H         1 <0>         0.4143
     43 H12        -9.0168   -1.4628   -1.0688 H         1 <0>         0.4255
     44 H13         4.8421    0.5294   -0.0416 H         1 <0>         0.3891
     45 H14         5.9814    3.1523    0.5501 H         1 <0>         0.0776
     46 H15         7.2537    0.4325    0.0090 H         1 <0>         0.0548
     47 H16         8.1565    1.8981    0.4621 H         1 <0>         0.0788
     48 H17         6.8522    2.0513    2.5654 H         1 <0>         0.0521
     49 H18         5.9494    0.5857    2.1123 H         1 <0>         0.0504
     50 H19        -6.6381    1.1054   -0.9929 H         1 <0>         0.4126
@<TRIPOS>BOND
     1    1    6 ar
     2    1    2 ar
     3    1   33 1
     4    2    3 ar
     5    2   34 1
     6    3    4 ar
     7    3   21 1
     8    4    5 ar
     9    4   35 1
    10    5    6 ar
    11    5   36 1
    12    6    7 1
    13    7    8 1
    14    7   37 1
    15    7   38 1
    16    8    9 1
    17    8   39 1
    18    8   40 1
    19    9   14 1
    20    9   10 2
    21   10   11 1
    22   10   41 1
    23   11   12 1
    24   11   13 1
    25   13   18 1
    26   13   14 2
    27   14   15 1
    28   15   16 am
    29   15   20 2
    30   16   17 1
    31   16   50 1
    32   17   18 2
    33   17   19 1
    34   19   42 1
    35   19   43 1
    36   21   22 2
    37   21   23 am
    38   23   24 1
    39   23   44 1
    40   24   25 1
    41   24   30 1
    42   24   45 1
    43   25   26 1
    44   25   46 1
    45   25   47 1
    46   26   27 1
    47   26   48 1
    48   26   49 1
    49   27   28 2
    50   27   29 1
    51   30   31 2
    52   30   32 1
@<TRIPOS>MOLECULE
CHEMBL23244
   45    47     0     0     0
SMALL
USER_CHARGES

@<TRIPOS>ATOM
      1 C1          0.6011    1.5059    0.0254 C.3       1 <0>        -0.1688
      2 C2          0.5962   -0.0011    0.0164 C.ar      1 <0>         0.0757
      3 C3          0.7688   -0.7002   -1.1496 C.ar      1 <0>        -0.1401
      4 C4          0.7608   -2.0894   -1.1311 C.ar      1 <0>         0.2396
      5 N1          0.5909   -2.7658   -0.0169 N.ar      1 <0>        -0.4955
      6 C5          0.4179   -2.1439    1.1495 C.ar      1 <0>         0.4053
      7 C6          0.4212   -0.7279    1.1995 C.ar      1 <0>        -0.2370
      8 C7          0.2403   -0.0941    2.4537 C.ar      1 <0>         0.5793
      9 N2          0.0808   -0.8575    3.5254 N.ar      1 <0>        -0.5780
     10 C8          0.0890   -2.1844    3.4359 C.ar      1 <0>         0.6994
     11 N3          0.2432   -2.8239    2.2917 N.ar      1 <0>        -0.5716
     12 N4         -0.0823   -2.9256    4.5893 N.pl3     1 <0>        -0.7774
     13 N5          0.2308    1.2796    2.5567 N.pl3     1 <0>        -0.8025
     14 C9          0.9664    0.0364   -2.4493 C.3       1 <0>        -0.0811
     15 S1          2.7370    0.3262   -2.7170 S.3       1 <0>        -0.0935
     16 C10         2.8008    1.1841   -4.2548 C.ar      1 <0>        -0.0910
     17 C11         1.6262    1.4754   -4.9371 C.ar      1 <0>        -0.1269
     18 C12         1.6749    2.1486   -6.1429 C.ar      1 <0>        -0.1546
     19 C13         2.8950    2.5340   -6.6742 C.ar      1 <0>         0.1073
     20 C14         4.0734    2.2435   -5.9938 C.ar      1 <0>         0.1230
     21 C15         4.0249    1.5743   -4.7821 C.ar      1 <0>        -0.1513
     22 O1          5.2713    2.6209   -6.5154 O.3       1 <0>        -0.2994
     23 C16         6.4399    2.2896   -5.7627 C.3       1 <0>         0.0231
     24 O2          2.9409    3.1966   -7.8621 O.3       1 <0>        -0.3017
     25 C17         1.6929    3.4611   -8.5061 C.3       1 <0>         0.0236
     26 H1          1.5929    1.8644    0.3007 H         1 <0>         0.1119
     27 H2          0.3435    1.8759   -0.9670 H         1 <0>         0.1033
     28 H3         -0.1298    1.8673    0.7488 H         1 <0>         0.1068
     29 H4          0.8976   -2.6280   -2.0572 H         1 <0>         0.1954
     30 H5         -0.2050   -2.4769    5.4405 H         1 <0>         0.4482
     31 H6         -0.0799   -3.8947    4.5479 H         1 <0>         0.4338
     32 H7         -0.4109    1.7180    3.1371 H         1 <0>         0.4308
     33 H8          0.8658    1.8084    2.0488 H         1 <0>         0.4366
     34 H9          0.5678   -0.5607   -3.2696 H         1 <0>         0.1149
     35 H10         0.4439    0.9921   -2.4084 H         1 <0>         0.1138
     36 H11         0.6742    1.1751   -4.5248 H         1 <0>         0.1266
     37 H12         0.7607    2.3742   -6.6719 H         1 <0>         0.1424
     38 H13         4.9383    1.3518   -4.2504 H         1 <0>         0.1420
     39 H14         7.3248    2.6468   -6.2896 H         1 <0>         0.1068
     40 H15         6.3861    2.7614   -4.7816 H         1 <0>         0.0568
     41 H16         6.5004    1.2079   -5.6429 H         1 <0>         0.0574
     42 H17         1.1852    2.5195   -8.7153 H         1 <0>         0.0573
     43 H18         1.0698    4.0727   -7.8535 H         1 <0>         0.0569
     44 H19         1.8718    3.9929   -9.4406 H         1 <0>         0.1060
     45 H20         0.2413   -3.7938    2.2786 H         1 <0>         0.4462
@<TRIPOS>BOND
     1    1    2 1
     2    1   26 1
     3    1   27 1
     4    1   28 1
     5    2    7 ar
     6    2    3 ar
     7    3    4 ar
     8    3   14 1
     9    4    5 ar
    10    4   29 1
    11    5    6 ar
    12    6   11 ar
    13    6    7 ar
    14    7    8 ar
    15    8    9 ar
    16    8   13 1
    17    9   10 ar
    18   10   11 ar
    19   10   12 1
    20   11   45 1
    21   12   30 1
    22   12   31 1
    23   13   32 1
    24   13   33 1
    25   14   15 1
    26   14   34 1
    27   14   35 1
    28   15   16 1
    29   16   21 ar
    30   16   17 ar
    31   17   18 ar
    32   17   36 1
    33   18   19 ar
    34   18   37 1
    35   19   20 ar
    36   19   24 1
    37   20   21 ar
    38   20   22 1
    39   21   38 1
    40   22   23 1
    41   23   39 1
    42   23   40 1
    43   23   41 1
    44   24   25 1
    45   25   42 1
    46   25   43 1
    47   25   44 1
@<TRIPOS>MOLECULE
CHEMBL23244__1
   44    46     0     0     0
SMALL
USER_CHARGES

@<TRIPOS>ATOM
      1 C1          0.6011    1.5059    0.0254 C.3       1 <0>        -0.1557
      2 C2          0.5962   -0.0011    0.0164 C.ar      1 <0>         0.0615
      3 C3          0.7688   -0.7002   -1.1496 C.ar      1 <0>        -0.1870
      4 C4          0.7608   -2.0894   -1.1311 C.ar      1 <0>         0.2118
      5 N1          0.5909   -2.7658   -0.0169 N.ar      1 <0>        -0.4867
      6 C5          0.4179   -2.1439    1.1495 C.ar      1 <0>         0.4164
      7 C6          0.4212   -0.7279    1.1995 C.ar      1 <0>        -0.2796
      8 C7          0.2403   -0.0941    2.4537 C.ar      1 <0>         0.5254
      9 N2          0.0808   -0.8575    3.5254 N.ar      1 <0>        -0.6166
     10 C8          0.0890   -2.1844    3.4359 C.ar      1 <0>         0.6252
     11 N3          0.2432   -2.8239    2.2917 N.ar      1 <0>        -0.5906
     12 N4         -0.0823   -2.9256    4.5893 N.pl3     1 <0>        -0.8101
     13 N5          0.2308    1.2796    2.5567 N.pl3     1 <0>        -0.8450
     14 C9          0.9664    0.0364   -2.4493 C.3       1 <0>        -0.0572
     15 S1          2.7370    0.3262   -2.7170 S.3       1 <0>        -0.1029
     16 C10         2.8008    1.1841   -4.2548 C.ar      1 <0>        -0.0824
     17 C11         1.6262    1.4754   -4.9371 C.ar      1 <0>        -0.1297
     18 C12         1.6749    2.1486   -6.1429 C.ar      1 <0>        -0.1528
     19 C13         2.8950    2.5340   -6.6742 C.ar      1 <0>         0.0966
     20 C14         4.0734    2.2435   -5.9938 C.ar      1 <0>         0.1202
     21 C15         4.0249    1.5743   -4.7821 C.ar      1 <0>        -0.1543
     22 O1          5.2713    2.6209   -6.5154 O.3       1 <0>        -0.3027
     23 C16         6.4399    2.2896   -5.7627 C.3       1 <0>         0.0238
     24 O2          2.9409    3.1966   -7.8621 O.3       1 <0>        -0.3050
     25 C17         1.6929    3.4611   -8.5061 C.3       1 <0>         0.0251
     26 H1          1.5929    1.8644    0.3007 H         1 <0>         0.0926
     27 H2          0.3435    1.8759   -0.9670 H         1 <0>         0.0829
     28 H3         -0.1298    1.8673    0.7488 H         1 <0>         0.1007
     29 H4          0.8976   -2.6280   -2.0572 H         1 <0>         0.1688
     30 H5         -0.2050   -2.4769    5.4405 H         1 <0>         0.4163
     31 H6         -0.0799   -3.8947    4.5479 H         1 <0>         0.4190
     32 H7         -0.4109    1.7180    3.1371 H         1 <0>         0.4108
     33 H8          0.8658    1.8084    2.0488 H         1 <0>         0.4190
     34 H9          0.5678   -0.5607   -3.2696 H         1 <0>         0.1019
     35 H10         0.4439    0.9921   -2.4084 H         1 <0>         0.1019
     36 H11         0.6742    1.1751   -4.5248 H         1 <0>         0.1281
     37 H12         0.7607    2.3742   -6.6719 H         1 <0>         0.1394
     38 H13         4.9383    1.3518   -4.2504 H         1 <0>         0.1409
     39 H14         6.5004    1.2079   -5.6429 H         1 <0>         0.0570
     40 H15         7.3248    2.6468   -6.2896 H         1 <0>         0.1034
     41 H16         6.3861    2.7614   -4.7816 H         1 <0>         0.0564
     42 H17         1.1852    2.5195   -8.7153 H         1 <0>         0.0556
     43 H18         1.0698    4.0727   -7.8535 H         1 <0>         0.0553
     44 H19         1.8718    3.9929   -9.4406 H         1 <0>         0.1023
@<TRIPOS>BOND
     1    1    2 1
     2    1   26 1
     3    1   27 1
     4    1   28 1
     5    2    7 ar
     6    2    3 ar
     7    3    4 ar
     8    3   14 1
     9    4    5 ar
    10    4   29 1
    11    5    6 ar
    12    6   11 ar
    13    6    7 ar
    14    7    8 ar
    15    8    9 ar
    16    8   13 1
    17    9   10 ar
    18   10   11 ar
    19   10   12 1
    20   12   30 1
    21   12   31 1
    22   13   32 1
    23   13   33 1
    24   14   15 1
    25   14   34 1
    26   14   35 1
    27   15   16 1
    28   16   21 ar
    29   16   17 ar
    30   17   18 ar
    31   17   36 1
    32   18   19 ar
    33   18   37 1
    34   19   20 ar
    35   19   24 1
    36   20   21 ar
    37   20   22 1
    38   21   38 1
    39   22   23 1
    40   23   39 1
    41   23   40 1
    42   23   41 1
    43   24   25 1
    44   25   42 1
    45   25   43 1
    46   25   44 1
@<TRIPOS>MOLECULE
CHEMBL144200
   42    46     0     0     0
SMALL
USER_CHARGES

@<TRIPOS>ATOM
      1 C1         -0.0167    1.3795    0.0096 C.ar      1 <0>        -0.0834
      2 C2          1.1652    2.0958    0.0022 C.ar      1 <0>        -0.1341
      3 C3          2.3799    1.4302   -0.0132 C.ar      1 <0>        -0.0626
      4 C4          2.4038    0.0485   -0.0206 C.ar      1 <0>        -0.1439
      5 C5          1.2121   -0.6805   -0.0125 C.ar      1 <0>         0.1966
      6 C6          0.0021   -0.0041    0.0020 C.ar      1 <0>        -0.1399
      7 N1          1.2386   -2.0792   -0.0168 N.pl3     1 <0>        -0.5744
      8 C7          2.2017   -2.8020    0.6953 C.ar      1 <0>         0.1870
      9 C8          1.8596   -3.9859    1.3302 C.ar      1 <0>        -0.1487
     10 C9          2.8171   -4.6952    2.0337 C.ar      1 <0>        -0.0809
     11 C10         4.1169   -4.2316    2.1091 C.ar      1 <0>        -0.1321
     12 C11         4.4699   -3.0499    1.4783 C.ar      1 <0>        -0.0602
     13 C12         3.5171   -2.3380    0.7747 C.ar      1 <0>        -0.1438
     14 S1          3.9364   -0.8283   -0.0398 S.3       1 <0>        -0.0017
     15 C13         0.2287   -2.8078   -0.7884 C.3       1 <0>         0.1837
     16 C14         0.7360   -3.0380   -2.1887 C.ar      1 <0>         0.0160
     17 C15         1.3621   -4.2428   -2.5068 C.ar      1 <0>         0.1561
     18 N2          1.8129   -4.4671   -3.7228 N.ar      1 <0>        -0.4394
     19 C16         1.6687   -3.5292   -4.6623 C.ar      1 <0>         0.3785
     20 C17         1.0316   -2.3067   -4.3336 C.ar      1 <0>        -0.0896
     21 N3          0.5790   -2.1022   -3.1007 N.ar      1 <0>        -0.3591
     22 C18         0.8915   -1.3032   -5.3902 C.ar      1 <0>         0.5464
     23 N4          1.3700   -1.6011   -6.5903 N.ar      1 <0>        -0.6284
     24 C19         1.9570   -2.7697   -6.8285 C.ar      1 <0>         0.6421
     25 N5          2.1088   -3.7070   -5.9141 N.ar      1 <0>        -0.6024
     26 N6          2.4333   -3.0150   -8.1023 N.pl3     1 <0>        -0.8058
     27 N7          0.2832   -0.0914   -5.1462 N.pl3     1 <0>        -0.7902
     28 H1         -0.9611    1.9031    0.0260 H         1 <0>         0.1299
     29 H2          1.1417    3.1755    0.0080 H         1 <0>         0.1302
     30 H3          3.3043    1.9887   -0.0197 H         1 <0>         0.1318
     31 H4         -0.9257   -0.5569    0.0074 H         1 <0>         0.1298
     32 H5          0.8459   -4.3544    1.2761 H         1 <0>         0.1323
     33 H6          2.5469   -5.6169    2.5275 H         1 <0>         0.1321
     34 H7          4.8581   -4.7910    2.6605 H         1 <0>         0.1318
     35 H8          5.4852   -2.6864    1.5365 H         1 <0>         0.1332
     36 H9          0.0297   -3.7676   -0.3117 H         1 <0>         0.1048
     37 H10        -0.6908   -2.2235   -0.8266 H         1 <0>         0.1031
     38 H11         1.4787   -5.0006   -1.7463 H         1 <0>         0.1757
     39 H12         2.3350   -2.3428   -8.7946 H         1 <0>         0.4175
     40 H13         2.8660   -3.8594   -8.3040 H         1 <0>         0.4201
     41 H14        -0.0612    0.1089   -4.2618 H         1 <0>         0.4256
     42 H15         0.1994    0.5614   -5.8587 H         1 <0>         0.4164
@<TRIPOS>BOND
     1    1    6 ar
     2    1    2 ar
     3    1   28 1
     4    2    3 ar
     5    2   29 1
     6    3    4 ar
     7    3   30 1
     8    4   14 1
     9    4    5 ar
    10    5    6 ar
    11    5    7 1
    12    6   31 1
    13    7    8 1
    14    7   15 1
    15    8   13 ar
    16    8    9 ar
    17    9   10 ar
    18    9   32 1
    19   10   11 ar
    20   10   33 1
    21   11   12 ar
    22   11   34 1
    23   12   13 ar
    24   12   35 1
    25   13   14 1
    26   15   16 1
    27   15   36 1
    28   15   37 1
    29   16   21 ar
    30   16   17 ar
    31   17   18 ar
    32   17   38 1
    33   18   19 ar
    34   19   25 ar
    35   19   20 ar
    36   20   21 ar
    37   20   22 ar
    38   22   23 ar
    39   22   27 1
    40   23   24 ar
    41   24   25 ar
    42   24   26 1
    43   26   39 1
    44   26   40 1
    45   27   41 1
    46   27   42 1
@<TRIPOS>MOLECULE
CHEMBL296190
   53    55     0     0     0
SMALL
USER_CHARGES

@<TRIPOS>ATOM
      1 C1         -0.4672    1.6708   -0.0361 C.ar      1 <0>        -0.1272
      2 C2          0.5832    2.5651   -0.0457 C.ar      1 <0>        -0.0639
      3 C3          1.8969    2.0942   -0.0201 C.ar      1 <0>        -0.1137
      4 C4          2.1386    0.7200    0.0151 C.ar      1 <0>        -0.0833
      5 C5          1.0791   -0.1636    0.0244 C.ar      1 <0>        -0.1250
      6 C6         -0.2207    0.3098   -0.0011 C.ar      1 <0>        -0.0736
      7 C7         -1.3731   -0.6613    0.0092 C.3       1 <0>        -0.0754
      8 C8         -1.7472   -1.0241   -1.4293 C.3       1 <0>        -0.1092
      9 C9         -2.9952   -1.9092   -1.4240 C.3       1 <0>        -0.0110
     10 C10        -2.6895   -3.2633   -0.7475 C.3       1 <0>        -0.1167
     11 C11        -3.5568   -4.2401   -1.5705 C.3       1 <0>        -0.0692
     12 C12        -3.7161   -3.5820   -2.9246 C.2       1 <0>         0.2048
     13 C13        -3.3969   -2.2592   -2.8390 C.2       1 <0>        -0.3090
     14 C14        -3.4794   -1.4603   -3.9944 C.2       1 <0>         0.5525
     15 N1         -3.8723   -2.0302   -5.1530 N.am      1 <0>        -0.6526
     16 C15        -4.1786   -3.3554   -5.1808 C.2       1 <0>         0.6371
     17 N2         -4.0998   -4.0961   -4.0949 N.2       1 <0>        -0.5898
     18 N3         -4.5766   -3.9290   -6.3584 N.pl3     1 <0>        -0.8227
     19 O1         -3.2009   -0.2732   -3.9495 O.2       1 <0>        -0.5250
     20 C16         3.0274    3.0469   -0.0307 C.2       1 <0>         0.5441
     21 O2          2.8139    4.2431   -0.0617 O.2       1 <0>        -0.5540
     22 N4          4.2948    2.5889   -0.0059 N.am      1 <0>        -0.6760
     23 C17         5.4150    3.5329   -0.0164 C.3       1 <0>         0.0735
     24 C18         6.6540    2.8477   -0.5963 C.3       1 <0>        -0.0821
     25 C19         6.4039    2.4999   -2.0651 C.3       1 <0>        -0.1775
     26 C20         7.6243    1.8249   -2.6363 C.2       1 <0>         0.4914
     27 O3          8.6032    1.6392   -1.9337 O.co2     1 <0>        -0.6976
     28 O4          7.6326    1.4645   -3.8010 O.co2     1 <0>        -0.7199
     29 C21         5.7040    3.9853    1.3918 C.2       1 <0>         0.4986
     30 O5          5.4796    3.2394    2.3298 O.co2     1 <0>        -0.6987
     31 O6          6.1622    5.0970    1.5931 O.co2     1 <0>        -0.7014
     32 H1         -1.4842    2.0339   -0.0513 H         1 <0>         0.1216
     33 H2          0.3894    3.6272   -0.0733 H         1 <0>         0.1324
     34 H3          3.1527    0.3492    0.0347 H         1 <0>         0.1284
     35 H4          1.2648   -1.2272    0.0516 H         1 <0>         0.1227
     36 H5         -1.0831   -1.5635    0.5478 H         1 <0>         0.0708
     37 H6         -2.2300   -0.2030    0.5029 H         1 <0>         0.0696
     38 H7         -1.9502   -0.1133   -1.9927 H         1 <0>         0.0803
     39 H8         -0.9217   -1.5627   -1.8946 H         1 <0>         0.0620
     40 H9         -3.8137   -1.4054   -0.9099 H         1 <0>         0.0805
     41 H10        -1.6322   -3.5124   -0.8375 H         1 <0>         0.0808
     42 H11        -2.9999   -3.2542    0.2974 H         1 <0>         0.0846
     43 H12        -3.0513   -5.2002   -1.6735 H         1 <0>         0.0868
     44 H13        -4.5292   -4.3741   -1.0966 H         1 <0>         0.0925
     45 H14        -4.6382   -3.3912   -7.1634 H         1 <0>         0.4143
     46 H15        -4.7970   -4.8731   -6.3879 H         1 <0>         0.4277
     47 H16        -3.9357   -1.4979   -5.9614 H         1 <0>         0.4125
     48 H17         4.4651    1.6343    0.0189 H         1 <0>         0.3913
     49 H18         5.1569    4.3963   -0.6296 H         1 <0>         0.0776
     50 H19         7.5089    3.5197   -0.5225 H         1 <0>         0.0725
     51 H20         6.8598    1.9351   -0.0368 H         1 <0>         0.0601
     52 H21         5.5490    1.8278   -2.1389 H         1 <0>         0.0512
     53 H22         6.1981    3.4124   -2.6246 H         1 <0>         0.0527
@<TRIPOS>BOND
     1    1    6 ar
     2    1    2 ar
     3    1   32 1
     4    2    3 ar
     5    2   33 1
     6    3    4 ar
     7    3   20 1
     8    4    5 ar
     9    4   34 1
    10    5    6 ar
    11    5   35 1
    12    6    7 1
    13    7    8 1
    14    7   36 1
    15    7   37 1
    16    8    9 1
    17    8   38 1
    18    8   39 1
    19    9   10 1
    20    9   40 1
    21    9   13 1
    22   10   11 1
    23   10   41 1
    24   10   42 1
    25   11   43 1
    26   11   44 1
    27   11   12 1
    28   12   17 1
    29   12   13 2
    30   13   14 1
    31   14   19 2
    32   14   15 am
    33   15   47 1
    34   15   16 1
    35   16   18 1
    36   16   17 2
    37   18   45 1
    38   18   46 1
    39   20   21 2
    40   20   22 am
    41   22   23 1
    42   22   48 1
    43   23   24 1
    44   23   29 1
    45   23   49 1
    46   24   25 1
    47   24   50 1
    48   24   51 1
    49   25   26 1
    50   25   52 1
    51   25   53 1
    52   26   27 2
    53   26   28 1
    54   29   30 2
    55   29   31 1
@<TRIPOS>MOLECULE
CHEMBL296190__1
   53    55     0     0     0
SMALL
USER_CHARGES

@<TRIPOS>ATOM
      1 C1         -0.4672    1.6708   -0.0361 C.ar      1 <0>        -0.1271
      2 C2          0.5832    2.5651   -0.0457 C.ar      1 <0>        -0.0642
      3 C3          1.8969    2.0942   -0.0201 C.ar      1 <0>        -0.1112
      4 C4          2.1386    0.7200    0.0151 C.ar      1 <0>        -0.0842
      5 C5          1.0791   -0.1636    0.0244 C.ar      1 <0>        -0.1252
      6 C6         -0.2207    0.3098   -0.0011 C.ar      1 <0>        -0.0747
      7 C7         -1.3731   -0.6613    0.0092 C.3       1 <0>        -0.0751
      8 C8         -1.7472   -1.0241   -1.4293 C.3       1 <0>        -0.1094
      9 C9         -2.9952   -1.9092   -1.4240 C.3       1 <0>        -0.0111
     10 C10        -2.6895   -3.2633   -0.7475 C.3       1 <0>        -0.1166
     11 C11        -3.5568   -4.2401   -1.5705 C.3       1 <0>        -0.0691
     12 C12        -3.7161   -3.5820   -2.9246 C.2       1 <0>         0.2042
     13 C13        -3.3969   -2.2592   -2.8390 C.2       1 <0>        -0.3083
     14 C14        -3.4794   -1.4603   -3.9944 C.2       1 <0>         0.5521
     15 N1         -3.8723   -2.0302   -5.1530 N.am      1 <0>        -0.6526
     16 C15        -4.1786   -3.3554   -5.1808 C.2       1 <0>         0.6368
     17 N2         -4.0998   -4.0961   -4.0949 N.2       1 <0>        -0.5898
     18 N3         -4.5766   -3.9290   -6.3584 N.pl3     1 <0>        -0.8229
     19 O1         -3.2009   -0.2732   -3.9495 O.2       1 <0>        -0.5241
     20 C16         3.0274    3.0469   -0.0307 C.2       1 <0>         0.5510
     21 O2          2.8139    4.2431   -0.0617 O.2       1 <0>        -0.5555
     22 N4          4.2948    2.5889   -0.0059 N.am      1 <0>        -0.6765
     23 C17         5.4150    3.5329   -0.0164 C.3       1 <0>         0.0726
     24 C18         6.6407    2.8769    0.6226 C.3       1 <0>        -0.0802
     25 C19         6.3586    2.6000    2.1006 C.3       1 <0>        -0.1779
     26 C20         7.5659    1.9538    2.7299 C.2       1 <0>         0.4911
     27 O3          8.5598    1.7351    2.0585 O.co2     1 <0>        -0.6973
     28 O4          7.5487    1.6498    3.9105 O.co2     1 <0>        -0.7204
     29 C21         5.7347    3.9173   -1.4380 C.2       1 <0>         0.4954
     30 O5          5.0869    3.4463   -2.3573 O.co2     1 <0>        -0.6967
     31 O6          6.6413    4.6992   -1.6690 O.co2     1 <0>        -0.7007
     32 H1         -1.4842    2.0339   -0.0513 H         1 <0>         0.1212
     33 H2          0.3894    3.6272   -0.0733 H         1 <0>         0.1322
     34 H3          3.1527    0.3492    0.0347 H         1 <0>         0.1274
     35 H4          1.2648   -1.2272    0.0516 H         1 <0>         0.1221
     36 H5         -1.0831   -1.5635    0.5478 H         1 <0>         0.0706
     37 H6         -2.2300   -0.2030    0.5029 H         1 <0>         0.0694
     38 H7         -1.9502   -0.1133   -1.9927 H         1 <0>         0.0804
     39 H8         -0.9217   -1.5627   -1.8946 H         1 <0>         0.0618
     40 H9         -3.8137   -1.4054   -0.9099 H         1 <0>         0.0806
     41 H10        -1.6322   -3.5124   -0.8375 H         1 <0>         0.0807
     42 H11        -2.9999   -3.2542    0.2974 H         1 <0>         0.0847
     43 H12        -3.0513   -5.2002   -1.6735 H         1 <0>         0.0866
     44 H13        -4.5292   -4.3741   -1.0966 H         1 <0>         0.0925
     45 H14        -4.6382   -3.3912   -7.1634 H         1 <0>         0.4142
     46 H15        -4.7970   -4.8731   -6.3879 H         1 <0>         0.4276
     47 H16        -3.9357   -1.4979   -5.9614 H         1 <0>         0.4124
     48 H17         4.4651    1.6343    0.0189 H         1 <0>         0.3891
     49 H18         5.1441    4.4246    0.5489 H         1 <0>         0.0778
     50 H19         6.8582    1.9387    0.1121 H         1 <0>         0.0548
     51 H20         7.4974    3.5452    0.5352 H         1 <0>         0.0790
     52 H21         6.1412    3.5382    2.6110 H         1 <0>         0.0523
     53 H22         5.5019    1.9318    2.1880 H         1 <0>         0.0503
@<TRIPOS>BOND
     1    1    6 ar
     2    1    2 ar
     3    1   32 1
     4    2    3 ar
     5    2   33 1
     6    3    4 ar
     7    3   20 1
     8    4    5 ar
     9    4   34 1
    10    5    6 ar
    11    5   35 1
    12    6    7 1
    13    7    8 1
    14    7   36 1
    15    7   37 1
    16    8    9 1
    17    8   38 1
    18    8   39 1
    19    9   10 1
    20    9   40 1
    21    9   13 1
    22   10   11 1
    23   10   41 1
    24   10   42 1
    25   11   43 1
    26   11   44 1
    27   11   12 1
    28   12   17 1
    29   12   13 2
    30   13   14 1
    31   14   19 2
    32   14   15 am
    33   15   47 1
    34   15   16 1
    35   16   18 1
    36   16   17 2
    37   18   45 1
    38   18   46 1
    39   20   21 2
    40   20   22 am
    41   22   23 1
    42   22   48 1
    43   23   24 1
    44   23   29 1
    45   23   49 1
    46   24   25 1
    47   24   50 1
    48   24   51 1
    49   25   26 1
    50   25   52 1
    51   25   53 1
    52   26   27 2
    53   26   28 1
    54   29   30 2
    55   29   31 1
@<TRIPOS>MOLECULE
CHEMBL296190__2
   53    55     0     0     0
SMALL
USER_CHARGES

@<TRIPOS>ATOM
      1 C1         -0.0167    1.3794    0.0096 C.ar      1 <0>        -0.1301
      2 C2          1.1667    2.0884    0.0021 C.ar      1 <0>        -0.0634
      3 C3          2.3848    1.4070   -0.0132 C.ar      1 <0>        -0.1151
      4 C4          2.3966    0.0113   -0.0208 C.ar      1 <0>        -0.0821
      5 C5          1.2061   -0.6856   -0.0132 C.ar      1 <0>        -0.1255
      6 C6          0.0021   -0.0041    0.0020 C.ar      1 <0>        -0.0704
      7 C7         -1.2946   -0.7719    0.0103 C.3       1 <0>        -0.0765
      8 C8         -1.7472   -1.0241   -1.4293 C.3       1 <0>        -0.1019
      9 C9         -3.0637   -1.8037   -1.4209 C.3       1 <0>        -0.0131
     10 C10        -3.6033   -1.9606   -2.8592 C.3       1 <0>        -0.1151
     11 C11        -3.0143   -3.3245   -3.2795 C.3       1 <0>        -0.0708
     12 C12        -2.8065   -4.0809   -1.9847 C.2       1 <0>         0.2095
     13 C13        -2.8347   -3.2157   -0.9312 C.2       1 <0>        -0.3104
     14 C14        -2.6598   -3.7190    0.3711 C.2       1 <0>         0.5531
     15 N1         -2.4694   -5.0450    0.5363 N.am      1 <0>        -0.6525
     16 C15        -2.4505   -5.8624   -0.5510 C.2       1 <0>         0.6381
     17 N2         -2.6143   -5.3835   -1.7667 N.2       1 <0>        -0.5888
     18 N3         -2.2572   -7.2066   -0.3783 N.pl3     1 <0>        -0.8220
     19 O1         -2.6794   -2.9700    1.3340 O.2       1 <0>        -0.5271
     20 C16         3.6569    2.1603   -0.0218 C.2       1 <0>         0.5445
     21 O2          3.6435    3.3757   -0.0155 O.2       1 <0>        -0.5541
     22 N4          4.8314    1.4994   -0.0366 N.am      1 <0>        -0.6762
     23 C17         6.0919    2.2459   -0.0451 C.3       1 <0>         0.0738
     24 C18         7.1909    1.3839   -0.6698 C.3       1 <0>        -0.0823
     25 C19         6.8626    1.1271   -2.1419 C.3       1 <0>        -0.1773
     26 C20         7.9450    0.2781   -2.7573 C.2       1 <0>         0.4915
     27 O3          8.8913   -0.0876   -2.0810 O.co2     1 <0>        -0.6979
     28 O4          7.8745   -0.0430   -3.9313 O.co2     1 <0>        -0.7197
     29 C21         6.4748    2.6012    1.3685 C.2       1 <0>         0.4982
     30 O5          6.1458    1.8742    2.2903 O.co2     1 <0>        -0.6987
     31 O6          7.1137    3.6157    1.5903 O.co2     1 <0>        -0.7014
     32 H1         -0.9598    1.9054    0.0260 H         1 <0>         0.1217
     33 H2          1.1508    3.1682    0.0077 H         1 <0>         0.1327
     34 H3          3.3358   -0.5219   -0.0330 H         1 <0>         0.1276
     35 H4          1.2138   -1.7656   -0.0191 H         1 <0>         0.1179
     36 H5         -1.1489   -1.7256    0.5176 H         1 <0>         0.0786
     37 H6         -2.0557   -0.1941    0.5345 H         1 <0>         0.0695
     38 H7         -1.8929   -0.0704   -1.9367 H         1 <0>         0.0689
     39 H8         -0.9861   -1.6019   -1.9536 H         1 <0>         0.0632
     40 H9         -3.7982   -1.2983   -0.7939 H         1 <0>         0.0790
     41 H10        -4.6929   -1.9901   -2.8641 H         1 <0>         0.0744
     42 H11        -3.2324   -1.1626   -3.5024 H         1 <0>         0.0869
     43 H12        -3.7156   -3.8580   -3.9211 H         1 <0>         0.0856
     44 H13        -2.0637   -3.1838   -3.7940 H         1 <0>         0.0973
     45 H14        -2.1352   -7.5685    0.5134 H         1 <0>         0.4144
     46 H15        -2.2422   -7.7973   -1.1476 H         1 <0>         0.4283
     47 H16        -2.3463   -5.4130    1.4253 H         1 <0>         0.4124
     48 H17         4.8421    0.5294   -0.0416 H         1 <0>         0.3911
     49 H18         5.9699    3.1583   -0.6287 H         1 <0>         0.0778
     50 H19         8.1462    1.9034   -0.5958 H         1 <0>         0.0726
     51 H20         7.2523    0.4333   -0.1400 H         1 <0>         0.0598
     52 H21         5.9072    0.6076   -2.2159 H         1 <0>         0.0510
     53 H22         6.8012    2.0777   -2.6717 H         1 <0>         0.0529
@<TRIPOS>BOND
     1    1    6 ar
     2    1    2 ar
     3    1   32 1
     4    2    3 ar
     5    2   33 1
     6    3    4 ar
     7    3   20 1
     8    4    5 ar
     9    4   34 1
    10    5    6 ar
    11    5   35 1
    12    6    7 1
    13    7    8 1
    14    7   36 1
    15    7   37 1
    16    8    9 1
    17    8   38 1
    18    8   39 1
    19    9   10 1
    20    9   40 1
    21    9   13 1
    22   10   11 1
    23   10   41 1
    24   10   42 1
    25   11   43 1
    26   11   44 1
    27   11   12 1
    28   12   17 1
    29   12   13 2
    30   13   14 1
    31   14   19 2
    32   14   15 am
    33   15   47 1
    34   15   16 1
    35   16   18 1
    36   16   17 2
    37   18   45 1
    38   18   46 1
    39   20   21 2
    40   20   22 am
    41   22   23 1
    42   22   48 1
    43   23   24 1
    44   23   29 1
    45   23   49 1
    46   24   25 1
    47   24   50 1
    48   24   51 1
    49   25   26 1
    50   25   52 1
    51   25   53 1
    52   26   27 2
    53   26   28 1
    54   29   30 2
    55   29   31 1
@<TRIPOS>MOLECULE
CHEMBL296190__3
   53    55     0     0     0
SMALL
USER_CHARGES

@<TRIPOS>ATOM
      1 C1         -0.0167    1.3794    0.0096 C.ar      1 <0>        -0.1299
      2 C2          1.1667    2.0884    0.0021 C.ar      1 <0>        -0.0636
      3 C3          2.3848    1.4070   -0.0132 C.ar      1 <0>        -0.1126
      4 C4          2.3966    0.0113   -0.0208 C.ar      1 <0>        -0.0831
      5 C5          1.2061   -0.6856   -0.0132 C.ar      1 <0>        -0.1256
      6 C6          0.0021   -0.0041    0.0020 C.ar      1 <0>        -0.0715
      7 C7         -1.2946   -0.7719    0.0103 C.3       1 <0>        -0.0761
      8 C8         -1.7472   -1.0241   -1.4293 C.3       1 <0>        -0.1020
      9 C9         -3.0637   -1.8037   -1.4209 C.3       1 <0>        -0.0132
     10 C10        -3.6033   -1.9606   -2.8592 C.3       1 <0>        -0.1152
     11 C11        -3.0143   -3.3245   -3.2795 C.3       1 <0>        -0.0705
     12 C12        -2.8065   -4.0809   -1.9847 C.2       1 <0>         0.2089
     13 C13        -2.8347   -3.2157   -0.9312 C.2       1 <0>        -0.3099
     14 C14        -2.6598   -3.7190    0.3711 C.2       1 <0>         0.5531
     15 N1         -2.4694   -5.0450    0.5363 N.am      1 <0>        -0.6524
     16 C15        -2.4505   -5.8624   -0.5510 C.2       1 <0>         0.6380
     17 N2         -2.6143   -5.3835   -1.7667 N.2       1 <0>        -0.5890
     18 N3         -2.2572   -7.2066   -0.3783 N.pl3     1 <0>        -0.8221
     19 O1         -2.6794   -2.9700    1.3340 O.2       1 <0>        -0.5267
     20 C16         3.6569    2.1603   -0.0218 C.2       1 <0>         0.5514
     21 O2          3.6435    3.3757   -0.0155 O.2       1 <0>        -0.5556
     22 N4          4.8314    1.4994   -0.0366 N.am      1 <0>        -0.6767
     23 C17         6.0919    2.2459   -0.0451 C.3       1 <0>         0.0727
     24 C18         7.2027    1.3778    0.5494 C.3       1 <0>        -0.0802
     25 C19         6.9032    1.1060    2.0250 C.3       1 <0>        -0.1780
     26 C20         7.9973    0.2510    2.6105 C.2       1 <0>         0.4910
     27 O3          8.9302   -0.1078    1.9123 O.co2     1 <0>        -0.6973
     28 O4          7.9496   -0.0820    3.7824 O.co2     1 <0>        -0.7204
     29 C21         6.4472    2.6155   -1.4622 C.2       1 <0>         0.4958
     30 O5          5.7154    2.2860   -2.3799 O.co2     1 <0>        -0.6967
     31 O6          7.4666    3.2441   -1.6909 O.co2     1 <0>        -0.7004
     32 H1         -0.9598    1.9054    0.0260 H         1 <0>         0.1213
     33 H2          1.1508    3.1682    0.0077 H         1 <0>         0.1324
     34 H3          3.3358   -0.5219   -0.0330 H         1 <0>         0.1266
     35 H4          1.2138   -1.7656   -0.0191 H         1 <0>         0.1173
     36 H5         -1.1489   -1.7256    0.5176 H         1 <0>         0.0784
     37 H6         -2.0557   -0.1941    0.5345 H         1 <0>         0.0692
     38 H7         -1.8929   -0.0704   -1.9367 H         1 <0>         0.0691
     39 H8         -0.9861   -1.6019   -1.9536 H         1 <0>         0.0630
     40 H9         -3.7982   -1.2983   -0.7939 H         1 <0>         0.0790
     41 H10        -4.6929   -1.9901   -2.8641 H         1 <0>         0.0743
     42 H11        -3.2324   -1.1626   -3.5024 H         1 <0>         0.0870
     43 H12        -3.7156   -3.8580   -3.9211 H         1 <0>         0.0854
     44 H13        -2.0637   -3.1838   -3.7940 H         1 <0>         0.0970
     45 H14        -2.1352   -7.5685    0.5134 H         1 <0>         0.4145
     46 H15        -2.2422   -7.7973   -1.1476 H         1 <0>         0.4281
     47 H16        -2.3463   -5.4130    1.4253 H         1 <0>         0.4126
     48 H17         4.8421    0.5294   -0.0416 H         1 <0>         0.3889
     49 H18         5.9814    3.1523    0.5501 H         1 <0>         0.0778
     50 H19         7.2537    0.4325    0.0090 H         1 <0>         0.0546
     51 H20         8.1565    1.8981    0.4621 H         1 <0>         0.0791
     52 H21         6.8522    2.0513    2.5654 H         1 <0>         0.0524
     53 H22         5.9494    0.5857    2.1123 H         1 <0>         0.0500
@<TRIPOS>BOND
     1    1    6 ar
     2    1    2 ar
     3    1   32 1
     4    2    3 ar
     5    2   33 1
     6    3    4 ar
     7    3   20 1
     8    4    5 ar
     9    4   34 1
    10    5    6 ar
    11    5   35 1
    12    6    7 1
    13    7    8 1
    14    7   36 1
    15    7   37 1
    16    8    9 1
    17    8   38 1
    18    8   39 1
    19    9   10 1
    20    9   40 1
    21    9   13 1
    22   10   11 1
    23   10   41 1
    24   10   42 1
    25   11   43 1
    26   11   44 1
    27   11   12 1
    28   12   17 1
    29   12   13 2
    30   13   14 1
    31   14   19 2
    32   14   15 am
    33   15   47 1
    34   15   16 1
    35   16   18 1
    36   16   17 2
    37   18   45 1
    38   18   46 1
    39   20   21 2
    40   20   22 am
    41   22   23 1
    42   22   48 1
    43   23   24 1
    44   23   29 1
    45   23   49 1
    46   24   25 1
    47   24   50 1
    48   24   51 1
    49   25   26 1
    50   25   52 1
    51   25   53 1
    52   26   27 2
    53   26   28 1
    54   29   30 2
    55   29   31 1
@<TRIPOS>MOLECULE
CHEMBL18155
   67    70     0     0     0
SMALL
USER_CHARGES

@<TRIPOS>ATOM
      1 C1          0.4041    1.3182    0.9527 C.ar      1 <0>        -0.1361
      2 C2          0.9300    2.0680   -0.0842 C.ar      1 <0>        -0.1264
      3 C3          1.7203    1.4711   -1.0484 C.ar      1 <0>        -0.0941
      4 C4          1.9918    0.1063   -0.9789 C.ar      1 <0>        -0.0923
      5 C5          1.4567   -0.6561    0.0769 C.ar      1 <0>        -0.0948
      6 C6          0.6630   -0.0376    1.0378 C.ar      1 <0>        -0.1121
      7 C7          1.7360   -2.1069    0.1636 C.2       1 <0>         0.5708
      8 O1          2.8840   -2.5057    0.1651 O.2       1 <0>        -0.4943
      9 N1          0.7172   -2.9859    0.2408 N.am      1 <0>        -0.7351
     10 C8          0.9937   -4.4220    0.3266 C.3       1 <0>         0.1252
     11 C9         -0.3263   -5.1919    0.4031 C.3       1 <0>        -0.1258
     12 C10        -0.0375   -6.6917    0.4927 C.3       1 <0>        -0.1059
     13 C11        -1.3575   -7.4615    0.5692 C.3       1 <0>         0.0785
     14 C12        -1.0733   -8.9263    0.7807 C.2       1 <0>         0.4929
     15 O2         -0.6269   -9.3128    1.8475 O.co2     1 <0>        -0.7004
     16 O3         -1.2897   -9.7248   -0.1148 O.co2     1 <0>        -0.6888
     17 N2         -2.0997   -7.2837   -0.6813 N.am      1 <0>        -0.6876
     18 C13        -3.4412   -7.4133   -0.6931 C.2       1 <0>         0.5593
     19 O4         -4.0355   -7.6778    0.3343 O.2       1 <0>        -0.5571
     20 C14        -4.1885   -7.2343   -1.9523 C.ar      1 <0>        -0.1701
     21 C15        -3.5062   -6.9360   -3.1354 C.ar      1 <0>        -0.0351
     22 C16        -4.2061   -6.7700   -4.3085 C.ar      1 <0>        -0.1982
     23 C17        -5.5924   -6.8986   -4.3179 C.ar      1 <0>         0.2284
     24 C18        -6.2748   -7.1952   -3.1412 C.ar      1 <0>        -0.2075
     25 C19        -5.5800   -7.3684   -1.9661 C.ar      1 <0>        -0.0157
     26 N3         -6.2967   -6.7299   -5.5048 N.pl3     1 <0>        -0.7408
     27 C20        -7.7555   -6.8648   -5.5163 C.3       1 <0>         0.1876
     28 C21        -8.2700   -6.6364   -6.9142 C.ar      1 <0>         0.0282
     29 C22        -8.4991   -7.7272   -7.7524 C.ar      1 <0>         0.1580
     30 N4         -8.9486   -7.5530   -8.9770 N.ar      1 <0>        -0.4423
     31 C23        -9.1879   -6.3167   -9.4213 C.ar      1 <0>         0.3766
     32 C24        -8.9534   -5.2118   -8.5653 C.ar      1 <0>        -0.0918
     33 N5         -8.5039   -5.4100   -7.3303 N.ar      1 <0>        -0.3621
     34 C25        -9.2279   -3.8721   -9.0878 C.ar      1 <0>         0.5467
     35 N6         -9.6794   -3.7759  -10.3307 N.ar      1 <0>        -0.6306
     36 C26        -9.8768   -4.8569  -11.0787 C.ar      1 <0>         0.6409
     37 N7         -9.6459   -6.0845  -10.6577 N.ar      1 <0>        -0.6036
     38 N8        -10.3490   -4.6846  -12.3658 N.pl3     1 <0>        -0.8080
     39 N9         -9.0246   -2.7501   -8.3146 N.pl3     1 <0>        -0.7885
     40 C27         2.8352   -0.5368   -2.0066 C.2       1 <0>         0.5119
     41 O5          3.3975    0.1459   -2.8509 O.co2     1 <0>        -0.6955
     42 O6          2.9712   -1.7519   -2.0132 O.co2     1 <0>        -0.6484
     43 H1         -0.2088    1.7956    1.7030 H         1 <0>         0.1161
     44 H2          0.7214    3.1262   -0.1409 H         1 <0>         0.1149
     45 H3          2.1270    2.0623   -1.8555 H         1 <0>         0.1290
     46 H4          0.2490   -0.6164    1.8502 H         1 <0>         0.1197
     47 H5         -0.1991   -2.6676    0.2395 H         1 <0>         0.3910
     48 H6          1.5483   -4.7387   -0.5568 H         1 <0>         0.0670
     49 H7          1.5852   -4.6255    1.2192 H         1 <0>         0.0613
     50 H8         -0.8809   -4.8752    1.2864 H         1 <0>         0.0643
     51 H9         -0.9178   -4.9884   -0.4896 H         1 <0>         0.0642
     52 H10         0.5171   -7.0083   -0.3906 H         1 <0>         0.0651
     53 H11         0.5540   -6.8951    1.3853 H         1 <0>         0.0831
     54 H12        -1.9513   -7.0828    1.4011 H         1 <0>         0.0827
     55 H13        -1.6257   -7.0728   -1.5009 H         1 <0>         0.3901
     56 H14        -2.4309   -6.8354   -3.1286 H         1 <0>         0.1272
     57 H15        -3.6796   -6.5395   -5.2228 H         1 <0>         0.1224
     58 H16        -7.3502   -7.2939   -3.1516 H         1 <0>         0.1227
     59 H17        -6.1095   -7.6032   -1.0546 H         1 <0>         0.1329
     60 H18        -5.8223   -6.5228   -6.3251 H         1 <0>         0.3994
     61 H19        -8.0303   -7.8669   -5.1872 H         1 <0>         0.0848
     62 H20        -8.1938   -6.1282   -4.8430 H         1 <0>         0.0821
     63 H21        -8.3049   -8.7267   -7.3924 H         1 <0>         0.1842
     64 H22       -10.5275   -3.7922  -12.7015 H         1 <0>         0.4163
     65 H23       -10.5021   -5.4560  -12.9336 H         1 <0>         0.4189
     66 H24        -8.6940   -2.8399   -7.4071 H         1 <0>         0.4282
     67 H25        -9.2121   -1.8704   -8.6777 H         1 <0>         0.4164
@<TRIPOS>BOND
     1    1    6 ar
     2    1    2 ar
     3    1   43 1
     4    2    3 ar
     5    2   44 1
     6    3    4 ar
     7    3   45 1
     8    4    5 ar
     9    4   40 1
    10    5    6 ar
    11    5    7 1
    12    6   46 1
    13    7    8 2
    14    7    9 am
    15    9   10 1
    16    9   47 1
    17   10   11 1
    18   10   48 1
    19   10   49 1
    20   11   12 1
    21   11   50 1
    22   11   51 1
    23   12   13 1
    24   12   52 1
    25   12   53 1
    26   13   14 1
    27   13   17 1
    28   13   54 1
    29   14   15 2
    30   14   16 1
    31   17   18 am
    32   17   55 1
    33   18   19 2
    34   18   20 1
    35   20   25 ar
    36   20   21 ar
    37   21   22 ar
    38   21   56 1
    39   22   23 ar
    40   22   57 1
    41   23   24 ar
    42   23   26 1
    43   24   25 ar
    44   24   58 1
    45   25   59 1
    46   26   27 1
    47   26   60 1
    48   27   28 1
    49   27   61 1
    50   27   62 1
    51   28   33 ar
    52   28   29 ar
    53   29   30 ar
    54   29   63 1
    55   30   31 ar
    56   31   37 ar
    57   31   32 ar
    58   32   33 ar
    59   32   34 ar
    60   34   35 ar
    61   34   39 1
    62   35   36 ar
    63   36   37 ar
    64   36   38 1
    65   38   64 1
    66   38   65 1
    67   39   66 1
    68   39   67 1
    69   40   41 2
    70   40   42 1
@<TRIPOS>MOLECULE
CHEMBL18155__1
   67    70     0     0     0
SMALL
USER_CHARGES

@<TRIPOS>ATOM
      1 C1          0.4041    1.3182    0.9527 C.ar      1 <0>        -0.1363
      2 C2          0.9300    2.0680   -0.0842 C.ar      1 <0>        -0.1262
      3 C3          1.7203    1.4711   -1.0484 C.ar      1 <0>        -0.0937
      4 C4          1.9918    0.1063   -0.9789 C.ar      1 <0>        -0.0918
      5 C5          1.4567   -0.6561    0.0769 C.ar      1 <0>        -0.0951
      6 C6          0.6630   -0.0376    1.0378 C.ar      1 <0>        -0.1121
      7 C7          1.7360   -2.1069    0.1636 C.2       1 <0>         0.5709
      8 O1          2.8840   -2.5057    0.1651 O.2       1 <0>        -0.4945
      9 N1          0.7172   -2.9859    0.2408 N.am      1 <0>        -0.7351
     10 C8          0.9937   -4.4220    0.3266 C.3       1 <0>         0.1252
     11 C9         -0.3263   -5.1919    0.4031 C.3       1 <0>        -0.1256
     12 C10        -0.0375   -6.6917    0.4927 C.3       1 <0>        -0.1067
     13 C11        -1.3575   -7.4615    0.5692 C.3       1 <0>         0.0785
     14 C12        -1.0784   -8.9420    0.5336 C.2       1 <0>         0.4939
     15 O2         -0.8972   -9.5533    1.5729 O.co2     1 <0>        -0.6944
     16 O3         -1.0338   -9.5285   -0.5343 O.co2     1 <0>        -0.6954
     17 N2         -2.0478   -7.1245    1.8167 N.am      1 <0>        -0.6877
     18 C13        -3.3873   -7.2480    1.9003 C.2       1 <0>         0.5531
     19 O4         -4.0229   -7.6392    0.9403 O.2       1 <0>        -0.5524
     20 C14        -4.0823   -6.9087    3.1565 C.ar      1 <0>        -0.1701
     21 C15        -3.3537   -6.4534    4.2592 C.ar      1 <0>        -0.0359
     22 C16        -4.0050   -6.1372    5.4294 C.ar      1 <0>        -0.1992
     23 C17        -5.3880   -6.2708    5.5160 C.ar      1 <0>         0.2283
     24 C18        -6.1165   -6.7244    4.4197 C.ar      1 <0>        -0.2065
     25 C19        -5.4717   -7.0363    3.2447 C.ar      1 <0>        -0.0151
     26 N3         -6.0432   -5.9509    6.7000 N.pl3     1 <0>        -0.7407
     27 C20        -7.4985   -6.0909    6.7928 C.3       1 <0>         0.1872
     28 C21        -7.9556   -5.6831    8.1697 C.ar      1 <0>         0.0281
     29 C22        -8.4041   -4.3814    8.3909 C.ar      1 <0>         0.1582
     30 N4         -8.8087   -4.0019    9.5844 N.ar      1 <0>        -0.4418
     31 C23        -8.7891   -4.8746   10.5949 C.ar      1 <0>         0.3768
     32 C24        -8.3323   -6.1963   10.3645 C.ar      1 <0>        -0.0922
     33 N5         -7.9327   -6.5605    9.1503 N.ar      1 <0>        -0.3623
     34 C25        -8.3260   -7.1244   11.4967 C.ar      1 <0>         0.5466
     35 N6         -8.7485   -6.6699   12.6684 N.ar      1 <0>        -0.6306
     36 C26        -9.1640   -5.4155   12.8129 C.ar      1 <0>         0.6409
     37 N7         -9.1900   -4.5401   11.8277 N.ar      1 <0>        -0.6031
     38 N8         -9.5912   -5.0076   14.0621 N.pl3     1 <0>        -0.8078
     39 N9         -7.8963   -8.4250   11.3497 N.pl3     1 <0>        -0.7890
     40 C27         2.8352   -0.5368   -2.0066 C.2       1 <0>         0.5114
     41 O5          3.3975    0.1459   -2.8509 O.co2     1 <0>        -0.6952
     42 O6          2.9712   -1.7519   -2.0132 O.co2     1 <0>        -0.6480
     43 H1         -0.2088    1.7956    1.7030 H         1 <0>         0.1159
     44 H2          0.7214    3.1262   -0.1409 H         1 <0>         0.1150
     45 H3          2.1270    2.0623   -1.8555 H         1 <0>         0.1293
     46 H4          0.2490   -0.6164    1.8502 H         1 <0>         0.1192
     47 H5         -0.1991   -2.6676    0.2395 H         1 <0>         0.3912
     48 H6          1.5483   -4.7387   -0.5568 H         1 <0>         0.0683
     49 H7          1.5852   -4.6255    1.2192 H         1 <0>         0.0598
     50 H8         -0.8809   -4.8752    1.2864 H         1 <0>         0.0624
     51 H9         -0.9178   -4.9884   -0.4896 H         1 <0>         0.0671
     52 H10         0.5171   -7.0083   -0.3906 H         1 <0>         0.0809
     53 H11         0.5540   -6.8951    1.3853 H         1 <0>         0.0665
     54 H12        -1.9863   -7.1898   -0.2788 H         1 <0>         0.0837
     55 H13        -1.5408   -6.8125    2.5825 H         1 <0>         0.3898
     56 H14        -2.2807   -6.3502    4.1928 H         1 <0>         0.1268
     57 H15        -3.4426   -5.7854    6.2817 H         1 <0>         0.1216
     58 H16        -7.1893   -6.8273    4.4901 H         1 <0>         0.1233
     59 H17        -6.0378   -7.3836    2.3931 H         1 <0>         0.1338
     60 H18        -5.5366   -5.6351    7.4645 H         1 <0>         0.3990
     61 H19        -7.9732   -5.4519    6.0482 H         1 <0>         0.0852
     62 H20        -7.7760   -7.1291    6.6105 H         1 <0>         0.0825
     63 H21        -8.4193   -3.6761    7.5731 H         1 <0>         0.1844
     64 H22        -9.5827   -5.6311   14.8051 H         1 <0>         0.4163
     65 H23        -9.8996   -4.0977   14.1959 H         1 <0>         0.4192
     66 H24        -7.5909   -8.7401   10.4846 H         1 <0>         0.4281
     67 H25        -7.8992   -9.0258   12.1112 H         1 <0>         0.4162
@<TRIPOS>BOND
     1    1    6 ar
     2    1    2 ar
     3    1   43 1
     4    2    3 ar
     5    2   44 1
     6    3    4 ar
     7    3   45 1
     8    4    5 ar
     9    4   40 1
    10    5    6 ar
    11    5    7 1
    12    6   46 1
    13    7    8 2
    14    7    9 am
    15    9   10 1
    16    9   47 1
    17   10   11 1
    18   10   48 1
    19   10   49 1
    20   11   12 1
    21   11   50 1
    22   11   51 1
    23   12   13 1
    24   12   52 1
    25   12   53 1
    26   13   14 1
    27   13   17 1
    28   13   54 1
    29   14   15 2
    30   14   16 1
    31   17   18 am
    32   17   55 1
    33   18   19 2
    34   18   20 1
    35   20   25 ar
    36   20   21 ar
    37   21   22 ar
    38   21   56 1
    39   22   23 ar
    40   22   57 1
    41   23   24 ar
    42   23   26 1
    43   24   25 ar
    44   24   58 1
    45   25   59 1
    46   26   27 1
    47   26   60 1
    48   27   28 1
    49   27   61 1
    50   27   62 1
    51   28   33 ar
    52   28   29 ar
    53   29   30 ar
    54   29   63 1
    55   30   31 ar
    56   31   37 ar
    57   31   32 ar
    58   32   33 ar
    59   32   34 ar
    60   34   35 ar
    61   34   39 1
    62   35   36 ar
    63   36   37 ar
    64   36   38 1
    65   38   64 1
    66   38   65 1
    67   39   66 1
    68   39   67 1
    69   40   41 2
    70   40   42 1
@<TRIPOS>MOLECULE
CHEMBL337603
   43    45     0     0     0
SMALL
USER_CHARGES

@<TRIPOS>ATOM
      1 C1          0.2711    1.4351    0.0536 C.3       1 <0>         0.0817
      2 N1          0.0021   -0.0041    0.0020 N.pl3     1 <0>        -0.5432
      3 C2          0.0009   -0.7586    1.1810 C.ar      1 <0>         0.1370
      4 C3          0.9913   -1.7074    1.3991 C.ar      1 <0>        -0.1023
      5 C4          0.9913   -2.4534    2.5624 C.ar      1 <0>        -0.1636
      6 C5          0.0035   -2.2562    3.5136 C.ar      1 <0>         0.1107
      7 C6         -0.9902   -1.3063    3.2982 C.ar      1 <0>         0.1150
      8 C7         -0.9870   -0.5545    2.1349 C.ar      1 <0>        -0.1718
      9 O1         -1.9603   -1.1124    4.2312 O.3       1 <0>        -0.2998
     10 C8         -2.9483   -0.1209    3.9435 C.3       1 <0>         0.0249
     11 O2          0.0049   -2.9916    4.6586 O.3       1 <0>        -0.3015
     12 C9          1.0545   -3.9489    4.8134 C.3       1 <0>         0.0236
     13 C10        -0.2521   -0.6202   -1.2176 C.ar      1 <0>         0.4199
     14 C11        -0.0471    0.0977   -2.4041 C.ar      1 <0>        -0.1284
     15 C12        -0.2921   -0.4946   -3.6078 C.ar      1 <0>        -0.0551
     16 C13        -0.7488   -1.8260   -3.6135 C.ar      1 <0>         0.0918
     17 C14        -0.9348   -2.4933   -2.3816 C.ar      1 <0>         0.0750
     18 N2         -0.6752   -1.8682   -1.2332 N.ar      1 <0>        -0.4819
     19 C15        -1.3955   -3.8352   -2.4131 C.ar      1 <0>         0.5648
     20 N3         -1.6277   -4.3941   -3.5905 N.ar      1 <0>        -0.5855
     21 C16        -1.4384   -3.7271   -4.7253 C.ar      1 <0>         0.6847
     22 N4         -1.0118   -2.4790   -4.7536 N.ar      1 <0>        -0.5697
     23 N5         -1.6988   -4.3679   -5.9244 N.pl3     1 <0>        -0.7907
     24 N6         -1.5964   -4.5408   -1.2443 N.pl3     1 <0>        -0.7465
     25 H1          1.3423    1.6084   -0.0501 H         1 <0>         0.0735
     26 H2         -0.2579    1.9330   -0.7590 H         1 <0>         0.0812
     27 H3         -0.0708    1.8346    1.0084 H         1 <0>         0.0884
     28 H4          1.7621   -1.8626    0.6588 H         1 <0>         0.1252
     29 H5          1.7619   -3.1914    2.7299 H         1 <0>         0.1428
     30 H6         -1.7550    0.1863    1.9679 H         1 <0>         0.1388
     31 H7         -3.6603   -0.0676    4.7672 H         1 <0>         0.1068
     32 H8         -2.4650    0.8480    3.8179 H         1 <0>         0.0566
     33 H9         -3.4734   -0.3867    3.0260 H         1 <0>         0.0544
     34 H10         1.0086   -4.6732    4.0001 H         1 <0>         0.0563
     35 H11         2.0176   -3.4389    4.7918 H         1 <0>         0.0584
     36 H12         0.9380   -4.4649    5.7664 H         1 <0>         0.1063
     37 H13         0.3038    1.1184   -2.3650 H         1 <0>         0.1680
     38 H14        -0.1400    0.0434   -4.5318 H         1 <0>         0.1707
     39 H15        -2.0128   -5.2856   -5.9257 H         1 <0>         0.4443
     40 H16        -1.5672   -3.8991   -6.7634 H         1 <0>         0.4301
     41 H17        -1.4223   -4.1201   -0.3878 H         1 <0>         0.4407
     42 H18        -1.9116   -5.4575   -1.2793 H         1 <0>         0.4305
     43 H19        -0.8882   -2.0311   -5.6050 H         1 <0>         0.4380
@<TRIPOS>BOND
     1    1    2 1
     2    1   25 1
     3    1   26 1
     4    1   27 1
     5    2    3 1
     6    2   13 1
     7    3    8 ar
     8    3    4 ar
     9    4    5 ar
    10    4   28 1
    11    5    6 ar
    12    5   29 1
    13    6    7 ar
    14    6   11 1
    15    7    8 ar
    16    7    9 1
    17    8   30 1
    18    9   10 1
    19   10   31 1
    20   10   32 1
    21   10   33 1
    22   11   12 1
    23   12   34 1
    24   12   35 1
    25   12   36 1
    26   13   18 ar
    27   13   14 ar
    28   14   15 ar
    29   14   37 1
    30   15   16 ar
    31   15   38 1
    32   16   22 ar
    33   16   17 ar
    34   17   18 ar
    35   17   19 ar
    36   19   20 ar
    37   19   24 1
    38   20   21 ar
    39   21   22 ar
    40   21   23 1
    41   22   43 1
    42   23   39 1
    43   23   40 1
    44   24   41 1
    45   24   42 1
@<TRIPOS>MOLECULE
CHEMBL20424
   56    59     0     0     0
SMALL
USER_CHARGES

@<TRIPOS>ATOM
      1 C1          2.5364   -0.7491   -0.3546 C.3       1 <0>        -0.1719
      2 C2          1.1956   -1.3049    0.1296 C.3       1 <0>         0.4022
      3 N1          0.1949   -1.1814   -0.9367 N.pl3     1 <0>        -0.6960
      4 C3         -1.0585   -0.9582   -0.6434 C.cat     1 <0>         0.7285
      5 N2         -1.4745   -0.7896    0.6233 N.2       1 <0>        -0.6371
      6 C4         -0.6096   -0.5909    1.6008 C.2       1 <0>         0.7310
      7 N3          0.7297   -0.5331    1.2921 N.pl3     1 <0>        -0.5931
      8 C5          1.6166    0.2329    2.0558 C.ar      1 <0>         0.0869
      9 C6          1.7473    1.5943    1.8133 C.ar      1 <0>        -0.0907
     10 C7          2.6238    2.3477    2.5690 C.ar      1 <0>        -0.1025
     11 C8          3.3714    1.7479    3.5662 C.ar      1 <0>        -0.0645
     12 C9          3.2435    0.3930    3.8101 C.ar      1 <0>        -0.0756
     13 C10         2.3640   -0.3650    3.0619 C.ar      1 <0>        -0.0843
     14 C11         4.0601   -0.2563    4.8977 C.3       1 <0>         0.0961
     15 O1          3.3366   -0.2091    6.1291 O.3       1 <0>        -0.3109
     16 C12         3.9368   -0.7563    7.2187 C.ar      1 <0>         0.1270
     17 C13         5.1996   -1.3218    7.1048 C.ar      1 <0>        -0.2089
     18 C14         5.8138   -1.8793    8.2103 C.ar      1 <0>        -0.0736
     19 C15         5.1747   -1.8770    9.4342 C.ar      1 <0>        -0.1435
     20 C16         3.9074   -1.3110    9.5571 C.ar      1 <0>         0.0006
     21 C17         3.2911   -0.7446    8.4439 C.ar      1 <0>        -0.1430
     22 C18         3.2185   -1.3072   10.8715 C.ar      1 <0>        -0.0562
     23 C19         1.9488   -0.7466   10.9937 C.ar      1 <0>        -0.1070
     24 C20         1.3124   -0.7462   12.2185 C.ar      1 <0>        -0.1188
     25 C21         1.9330   -1.3005   13.3234 C.ar      1 <0>        -0.1116
     26 C22         3.1934   -1.8584   13.2077 C.ar      1 <0>        -0.1170
     27 C23         3.8366   -1.8694   11.9865 C.ar      1 <0>        -0.1047
     28 N4         -1.0357   -0.4452    2.8917 N.pl3     1 <0>        -0.7688
     29 N5         -1.9836   -0.8930   -1.6657 N.pl3     1 <0>        -0.7920
     30 C24         1.3574   -2.7758    0.5184 C.3       1 <0>        -0.1813
     31 H1          3.2919   -0.8998    0.4164 H         1 <0>         0.1008
     32 H2          2.8374   -1.2679   -1.2647 H         1 <0>         0.0987
     33 H3          2.4349    0.3165   -0.5605 H         1 <0>         0.0831
     34 H4          1.1644    2.0631    1.0343 H         1 <0>         0.1295
     35 H5          2.7259    3.4062    2.3810 H         1 <0>         0.1431
     36 H6          4.0567    2.3392    4.1554 H         1 <0>         0.1409
     37 H7          2.2614   -1.4225    3.2558 H         1 <0>         0.1362
     38 H8          4.2583   -1.2947    4.6323 H         1 <0>         0.0762
     39 H9          5.0042    0.2765    5.0104 H         1 <0>         0.0806
     40 H10         5.7034   -1.3263    6.1495 H         1 <0>         0.1276
     41 H11         6.7960   -2.3183    8.1164 H         1 <0>         0.1305
     42 H12         5.6570   -2.3140   10.2961 H         1 <0>         0.1304
     43 H13         2.3105   -0.3013    8.5350 H         1 <0>         0.1332
     44 H14         1.4636   -0.3128   10.1318 H         1 <0>         0.1244
     45 H15         0.3282   -0.3119   12.3144 H         1 <0>         0.1260
     46 H16         1.4318   -1.2975   14.2800 H         1 <0>         0.1259
     47 H17         3.6736   -2.2896   14.0736 H         1 <0>         0.1276
     48 H18         4.8190   -2.3089   11.8964 H         1 <0>         0.1273
     49 H19        -1.9762   -0.5470    3.1064 H         1 <0>         0.4408
     50 H20        -0.3976   -0.2400    3.5928 H         1 <0>         0.4310
     51 H21        -1.6992   -1.0123   -2.5854 H         1 <0>         0.4289
     52 H22        -2.9180   -0.7280   -1.4645 H         1 <0>         0.4409
     53 H23         2.0939   -2.8615    1.3174 H         1 <0>         0.0960
     54 H24         0.4005   -3.1680    0.8627 H         1 <0>         0.0721
     55 H25         1.6932   -3.3458   -0.3479 H         1 <0>         0.0973
     56 H26         0.4656   -1.2657   -1.8643 H         1 <0>         0.4316
@<TRIPOS>BOND
     1    1    2 1
     2    1   31 1
     3    1   32 1
     4    1   33 1
     5    2    7 1
     6    2    3 1
     7    2   30 1
     8    3    4 2
     9    3   56 1
    10    4    5 1
    11    4   29 1
    12    5    6 2
    13    6    7 1
    14    6   28 1
    15    7    8 1
    16    8   13 ar
    17    8    9 ar
    18    9   10 ar
    19    9   34 1
    20   10   11 ar
    21   10   35 1
    22   11   12 ar
    23   11   36 1
    24   12   13 ar
    25   12   14 1
    26   13   37 1
    27   14   15 1
    28   14   38 1
    29   14   39 1
    30   15   16 1
    31   16   21 ar
    32   16   17 ar
    33   17   18 ar
    34   17   40 1
    35   18   19 ar
    36   18   41 1
    37   19   20 ar
    38   19   42 1
    39   20   21 ar
    40   20   22 1
    41   21   43 1
    42   22   27 ar
    43   22   23 ar
    44   23   24 ar
    45   23   44 1
    46   24   25 ar
    47   24   45 1
    48   25   26 ar
    49   25   46 1
    50   26   27 ar
    51   26   47 1
    52   27   48 1
    53   28   49 1
    54   28   50 1
    55   29   51 1
    56   29   52 1
    57   30   53 1
    58   30   54 1
    59   30   55 1
@<TRIPOS>MOLECULE
CHEMBL344592
   42    44     0     0     0
SMALL
USER_CHARGES

@<TRIPOS>ATOM
      1 C1         -0.0167    1.3770    0.0096 C.ar      1 <0>        -0.0780
      2 C2          1.1707    2.0858    0.0021 C.ar      1 <0>        -0.1474
      3 C3          2.3791    1.4145   -0.0130 C.ar      1 <0>        -0.0413
      4 C4          2.4032    0.0331   -0.0211 C.ar      1 <0>        -0.1483
      5 C5          1.2136   -0.6802   -0.0135 C.ar      1 <0>         0.1327
      6 C6          0.0021   -0.0041    0.0020 C.ar      1 <0>        -0.1958
      7 O1          1.2347   -2.0390   -0.0215 O.3       1 <0>        -0.2966
      8 C7         -0.0283   -2.7075   -0.0130 C.3       1 <0>         0.2566
      9 C8          0.1878   -4.2042    0.2257 C.3       1 <0>        -0.1406
     10 C9         -1.1643   -4.9221    0.1735 C.3       1 <0>        -0.1203
     11 C10        -1.8285   -4.6388   -1.1774 C.3       1 <0>        -0.1619
     12 C11        -1.9668   -3.1253   -1.3618 C.3       1 <0>         0.0696
     13 O2         -0.6773   -2.5160   -1.2716 O.3       1 <0>        -0.3977
     14 C12         3.6712    2.1901   -0.0212 C.3       1 <0>        -0.0152
     15 C13         4.1154    2.4411    1.3968 C.ar      1 <0>        -0.3068
     16 C14         3.7935    3.6205    2.0396 C.ar      1 <0>         0.2237
     17 N1          4.1986    3.8106    3.2866 N.ar      1 <0>        -0.6059
     18 C15         4.9056    2.8871    3.9213 C.ar      1 <0>         0.6016
     19 N2          5.2352    1.7434    3.3405 N.ar      1 <0>        -0.6277
     20 C16         4.8569    1.4841    2.0928 C.ar      1 <0>         0.4883
     21 N3          5.1982    0.2845    1.4898 N.pl3     1 <0>        -0.8343
     22 N4          5.3100    3.1236    5.2235 N.pl3     1 <0>        -0.8220
     23 H1         -0.9594    1.9037    0.0259 H         1 <0>         0.1253
     24 H2          1.1540    3.1657    0.0076 H         1 <0>         0.1251
     25 H3          3.3475   -0.4909   -0.0336 H         1 <0>         0.1232
     26 H4         -0.9255   -0.5572    0.0082 H         1 <0>         0.1258
     27 H5         -0.6507   -2.2985    0.7829 H         1 <0>         0.0641
     28 H6          0.8433   -4.6054   -0.5473 H         1 <0>         0.0850
     29 H7          0.6428   -4.3550    1.2047 H         1 <0>         0.0845
     30 H8         -1.0119   -5.9954    0.2869 H         1 <0>         0.0800
     31 H9         -1.8027   -4.5562    0.9776 H         1 <0>         0.0679
     32 H10        -1.2138   -5.0487   -1.9787 H         1 <0>         0.0767
     33 H11        -2.8157   -5.1004   -1.2018 H         1 <0>         0.0808
     34 H12        -2.3999   -2.9164   -2.3400 H         1 <0>         0.1021
     35 H13        -2.6147   -2.7219   -0.5836 H         1 <0>         0.0535
     36 H14         4.4358    1.6168   -0.5454 H         1 <0>         0.0757
     37 H15         3.5198    3.1429   -0.5285 H         1 <0>         0.0897
     38 H16         3.2180    4.3798    1.5310 H         1 <0>         0.1640
     39 H17         4.9219    0.1043    0.5776 H         1 <0>         0.4100
     40 H18         5.7134   -0.3753    1.9798 H         1 <0>         0.4063
     41 H19         5.0754    3.9573    5.6604 H         1 <0>         0.4150
     42 H20         5.8280    2.4557    5.6994 H         1 <0>         0.4127
@<TRIPOS>BOND
     1    1    6 ar
     2    1    2 ar
     3    1   23 1
     4    2    3 ar
     5    2   24 1
     6    3    4 ar
     7    3   14 1
     8    4    5 ar
     9    4   25 1
    10    5    6 ar
    11    5    7 1
    12    6   26 1
    13    7    8 1
    14    8   13 1
    15    8    9 1
    16    8   27 1
    17    9   10 1
    18    9   28 1
    19    9   29 1
    20   10   11 1
    21   10   30 1
    22   10   31 1
    23   11   12 1
    24   11   32 1
    25   11   33 1
    26   12   13 1
    27   12   34 1
    28   12   35 1
    29   14   15 1
    30   14   36 1
    31   14   37 1
    32   15   20 ar
    33   15   16 ar
    34   16   17 ar
    35   16   38 1
    36   17   18 ar
    37   18   19 ar
    38   18   22 1
    39   19   20 ar
    40   20   21 1
    41   21   39 1
    42   21   40 1
    43   22   41 1
    44   22   42 1
@<TRIPOS>MOLECULE
CHEMBL344592__1
   43    45     0     0     0
SMALL
USER_CHARGES

@<TRIPOS>ATOM
      1 C1         -0.0167    1.3770    0.0096 C.ar      1 <0>        -0.0720
      2 C2          1.1707    2.0858    0.0021 C.ar      1 <0>        -0.1475
      3 C3          2.3791    1.4145   -0.0130 C.ar      1 <0>        -0.0663
      4 C4          2.4032    0.0331   -0.0211 C.ar      1 <0>        -0.1518
      5 C5          1.2136   -0.6802   -0.0135 C.ar      1 <0>         0.1424
      6 C6          0.0021   -0.0041    0.0020 C.ar      1 <0>        -0.1838
      7 O1          1.2347   -2.0390   -0.0215 O.3       1 <0>        -0.2955
      8 C7         -0.0283   -2.7075   -0.0130 C.3       1 <0>         0.2561
      9 C8          0.1878   -4.2042    0.2257 C.3       1 <0>        -0.1405
     10 C9         -1.1643   -4.9221    0.1735 C.3       1 <0>        -0.1212
     11 C10        -1.8285   -4.6388   -1.1774 C.3       1 <0>        -0.1634
     12 C11        -1.9668   -3.1253   -1.3618 C.3       1 <0>         0.0698
     13 O2         -0.6773   -2.5160   -1.2716 O.3       1 <0>        -0.3990
     14 C12         3.6712    2.1901   -0.0212 C.3       1 <0>        -0.0285
     15 C13         4.1154    2.4411    1.3968 C.ar      1 <0>        -0.2210
     16 C14         3.7935    3.6205    2.0396 C.ar      1 <0>         0.2084
     17 N1          4.1986    3.8106    3.2866 N.ar      1 <0>        -0.5703
     18 C15         4.9059    2.8872    3.9211 C.ar      1 <0>         0.6615
     19 N2          5.2356    1.7436    3.3403 N.ar      1 <0>        -0.5736
     20 C16         4.8569    1.4841    2.0928 C.ar      1 <0>         0.5356
     21 N3          5.1982    0.2845    1.4898 N.pl3     1 <0>        -0.7760
     22 N4          5.3107    3.1240    5.2232 N.pl3     1 <0>        -0.7925
     23 H1         -0.9594    1.9037    0.0259 H         1 <0>         0.1316
     24 H2          1.1540    3.1657    0.0076 H         1 <0>         0.1272
     25 H3          3.3475   -0.4909   -0.0336 H         1 <0>         0.1229
     26 H4         -0.9255   -0.5572    0.0082 H         1 <0>         0.1328
     27 H5         -0.6507   -2.2985    0.7829 H         1 <0>         0.0659
     28 H6          0.8433   -4.6054   -0.5473 H         1 <0>         0.0866
     29 H7          0.6428   -4.3550    1.2047 H         1 <0>         0.0845
     30 H8         -1.0119   -5.9954    0.2869 H         1 <0>         0.0831
     31 H9         -1.8027   -4.5562    0.9776 H         1 <0>         0.0686
     32 H10        -1.2138   -5.0487   -1.9787 H         1 <0>         0.0784
     33 H11        -2.8157   -5.1004   -1.2018 H         1 <0>         0.0842
     34 H12        -2.3999   -2.9164   -2.3400 H         1 <0>         0.1053
     35 H13        -2.6147   -2.7219   -0.5836 H         1 <0>         0.0550
     36 H14         4.4358    1.6168   -0.5454 H         1 <0>         0.0977
     37 H15         3.5198    3.1429   -0.5285 H         1 <0>         0.1121
     38 H16         3.2180    4.3798    1.5310 H         1 <0>         0.2152
     39 H17         4.9219    0.1043    0.5776 H         1 <0>         0.4296
     40 H18         5.7134   -0.3753    1.9798 H         1 <0>         0.4285
     41 H19         5.0762    3.9576    5.6601 H         1 <0>         0.4305
     42 H20         5.8290    2.4562    5.6990 H         1 <0>         0.4447
     43 H21         3.9745    4.6376    3.7414 H         1 <0>         0.4446
@<TRIPOS>BOND
     1    1    6 ar
     2    1    2 ar
     3    1   23 1
     4    2    3 ar
     5    2   24 1
     6    3    4 ar
     7    3   14 1
     8    4    5 ar
     9    4   25 1
    10    5    6 ar
    11    5    7 1
    12    6   26 1
    13    7    8 1
    14    8   13 1
    15    8    9 1
    16    8   27 1
    17    9   10 1
    18    9   28 1
    19    9   29 1
    20   10   11 1
    21   10   30 1
    22   10   31 1
    23   11   12 1
    24   11   32 1
    25   11   33 1
    26   12   13 1
    27   12   34 1
    28   12   35 1
    29   14   15 1
    30   14   36 1
    31   14   37 1
    32   15   20 ar
    33   15   16 ar
    34   16   17 ar
    35   16   38 1
    36   17   18 ar
    37   17   43 1
    38   18   19 ar
    39   18   22 1
    40   19   20 ar
    41   20   21 1
    42   21   39 1
    43   21   40 1
    44   22   41 1
    45   22   42 1
@<TRIPOS>MOLECULE
CHEMBL344592__2
   42    44     0     0     0
SMALL
USER_CHARGES

@<TRIPOS>ATOM
      1 C1         -0.0167    1.3770    0.0096 C.ar      1 <0>        -0.0792
      2 C2          1.1707    2.0858    0.0021 C.ar      1 <0>        -0.1473
      3 C3          2.3791    1.4145   -0.0130 C.ar      1 <0>        -0.0423
      4 C4          2.4032    0.0331   -0.0211 C.ar      1 <0>        -0.1486
      5 C5          1.2136   -0.6802   -0.0135 C.ar      1 <0>         0.1324
      6 C6          0.0021   -0.0041    0.0020 C.ar      1 <0>        -0.1932
      7 O1          1.2347   -2.0390   -0.0215 O.3       1 <0>        -0.2977
      8 C7         -0.0283   -2.7075   -0.0130 C.3       1 <0>         0.2573
      9 C8          0.1918   -4.2165   -0.1480 C.3       1 <0>        -0.1407
     10 C9         -1.1616   -4.9304   -0.0776 C.3       1 <0>        -0.1201
     11 C10        -1.8544   -4.5593    1.2372 C.3       1 <0>        -0.1619
     12 C11        -1.9955   -3.0371    1.3187 C.3       1 <0>         0.0692
     13 O2         -0.7039   -2.4341    1.2162 O.3       1 <0>        -0.3980
     14 C12         3.6712    2.1901   -0.0212 C.3       1 <0>        -0.0147
     15 C13         4.1154    2.4411    1.3968 C.ar      1 <0>        -0.3070
     16 C14         3.7935    3.6205    2.0396 C.ar      1 <0>         0.2236
     17 N1          4.1986    3.8106    3.2866 N.ar      1 <0>        -0.6059
     18 C15         4.9056    2.8871    3.9213 C.ar      1 <0>         0.6018
     19 N2          5.2352    1.7434    3.3405 N.ar      1 <0>        -0.6276
     20 C16         4.8569    1.4841    2.0928 C.ar      1 <0>         0.4888
     21 N3          5.1982    0.2845    1.4898 N.pl3     1 <0>        -0.8341
     22 N4          5.3100    3.1236    5.2235 N.pl3     1 <0>        -0.8220
     23 H1         -0.9594    1.9037    0.0259 H         1 <0>         0.1249
     24 H2          1.1540    3.1657    0.0076 H         1 <0>         0.1247
     25 H3          3.3475   -0.4909   -0.0336 H         1 <0>         0.1228
     26 H4         -0.9255   -0.5572    0.0082 H         1 <0>         0.1276
     27 H5         -0.6333   -2.3521   -0.8471 H         1 <0>         0.0645
     28 H6          0.6675   -4.4310   -1.1050 H         1 <0>         0.0852
     29 H7          0.8304   -4.5655    0.6635 H         1 <0>         0.0844
     30 H8         -1.7824   -4.6185   -0.9175 H         1 <0>         0.0682
     31 H9         -1.0075   -6.0087   -0.1169 H         1 <0>         0.0800
     32 H10        -2.8421   -5.0190    1.2708 H         1 <0>         0.0808
     33 H11        -1.2572   -4.9153    2.0767 H         1 <0>         0.0763
     34 H12        -2.6263   -2.6862    0.5020 H         1 <0>         0.0541
     35 H13        -2.4492   -2.7646    2.2716 H         1 <0>         0.1016
     36 H14         4.4358    1.6168   -0.5454 H         1 <0>         0.0753
     37 H15         3.5198    3.1429   -0.5285 H         1 <0>         0.0894
     38 H16         3.2180    4.3798    1.5310 H         1 <0>         0.1638
     39 H17         4.9219    0.1043    0.5776 H         1 <0>         0.4096
     40 H18         5.7134   -0.3753    1.9798 H         1 <0>         0.4063
     41 H19         5.0754    3.9573    5.6604 H         1 <0>         0.4150
     42 H20         5.8280    2.4557    5.6994 H         1 <0>         0.4127
@<TRIPOS>BOND
     1    1    6 ar
     2    1    2 ar
     3    1   23 1
     4    2    3 ar
     5    2   24 1
     6    3    4 ar
     7    3   14 1
     8    4    5 ar
     9    4   25 1
    10    5    6 ar
    11    5    7 1
    12    6   26 1
    13    7    8 1
    14    8   13 1
    15    8    9 1
    16    8   27 1
    17    9   10 1
    18    9   28 1
    19    9   29 1
    20   10   11 1
    21   10   30 1
    22   10   31 1
    23   11   12 1
    24   11   32 1
    25   11   33 1
    26   12   13 1
    27   12   34 1
    28   12   35 1
    29   14   15 1
    30   14   36 1
    31   14   37 1
    32   15   20 ar
    33   15   16 ar
    34   16   17 ar
    35   16   38 1
    36   17   18 ar
    37   18   19 ar
    38   18   22 1
    39   19   20 ar
    40   20   21 1
    41   21   39 1
    42   21   40 1
    43   22   41 1
    44   22   42 1
@<TRIPOS>MOLECULE
CHEMBL344592__3
   43    45     0     0     0
SMALL
USER_CHARGES

@<TRIPOS>ATOM
      1 C1         -0.0167    1.3770    0.0096 C.ar      1 <0>        -0.0733
      2 C2          1.1707    2.0858    0.0021 C.ar      1 <0>        -0.1474
      3 C3          2.3791    1.4145   -0.0130 C.ar      1 <0>        -0.0673
      4 C4          2.4032    0.0331   -0.0211 C.ar      1 <0>        -0.1521
      5 C5          1.2136   -0.6802   -0.0135 C.ar      1 <0>         0.1421
      6 C6          0.0021   -0.0041    0.0020 C.ar      1 <0>        -0.1811
      7 O1          1.2347   -2.0390   -0.0215 O.3       1 <0>        -0.2962
      8 C7         -0.0283   -2.7075   -0.0130 C.3       1 <0>         0.2564
      9 C8          0.1918   -4.2165   -0.1480 C.3       1 <0>        -0.1403
     10 C9         -1.1616   -4.9304   -0.0776 C.3       1 <0>        -0.1217
     11 C10        -1.8544   -4.5593    1.2372 C.3       1 <0>        -0.1628
     12 C11        -1.9955   -3.0371    1.3187 C.3       1 <0>         0.0696
     13 O2         -0.7039   -2.4341    1.2162 O.3       1 <0>        -0.4020
     14 C12         3.6712    2.1901   -0.0212 C.3       1 <0>        -0.0281
     15 C13         4.1154    2.4411    1.3968 C.ar      1 <0>        -0.2212
     16 C14         3.7935    3.6205    2.0396 C.ar      1 <0>         0.2084
     17 N1          4.1986    3.8106    3.2866 N.ar      1 <0>        -0.5703
     18 C15         4.9059    2.8872    3.9211 C.ar      1 <0>         0.6617
     19 N2          5.2356    1.7436    3.3403 N.ar      1 <0>        -0.5735
     20 C16         4.8569    1.4841    2.0928 C.ar      1 <0>         0.5360
     21 N3          5.1982    0.2845    1.4898 N.pl3     1 <0>        -0.7758
     22 N4          5.3107    3.1240    5.2232 N.pl3     1 <0>        -0.7925
     23 H1         -0.9594    1.9037    0.0259 H         1 <0>         0.1313
     24 H2          1.1540    3.1657    0.0076 H         1 <0>         0.1268
     25 H3          3.3475   -0.4909   -0.0336 H         1 <0>         0.1226
     26 H4         -0.9255   -0.5572    0.0082 H         1 <0>         0.1346
     27 H5         -0.6333   -2.3521   -0.8471 H         1 <0>         0.0681
     28 H6          0.6675   -4.4310   -1.1050 H         1 <0>         0.0868
     29 H7          0.8304   -4.5655    0.6635 H         1 <0>         0.0848
     30 H8         -1.7824   -4.6185   -0.9175 H         1 <0>         0.0700
     31 H9         -1.0075   -6.0087   -0.1169 H         1 <0>         0.0832
     32 H10        -2.8421   -5.0190    1.2708 H         1 <0>         0.0841
     33 H11        -1.2572   -4.9153    2.0767 H         1 <0>         0.0770
     34 H12        -2.6263   -2.6862    0.5020 H         1 <0>         0.0564
     35 H13        -2.4492   -2.7646    2.2716 H         1 <0>         0.1037
     36 H14         4.4358    1.6168   -0.5454 H         1 <0>         0.0973
     37 H15         3.5198    3.1429   -0.5285 H         1 <0>         0.1118
     38 H16         3.2180    4.3798    1.5310 H         1 <0>         0.2151
     39 H17         4.9219    0.1043    0.5776 H         1 <0>         0.4293
     40 H18         5.7134   -0.3753    1.9798 H         1 <0>         0.4285
     41 H19         5.0762    3.9576    5.6601 H         1 <0>         0.4304
     42 H20         5.8290    2.4562    5.6990 H         1 <0>         0.4447
     43 H21         3.9745    4.6376    3.7414 H         1 <0>         0.4445
@<TRIPOS>BOND
     1    1    6 ar
     2    1    2 ar
     3    1   23 1
     4    2    3 ar
     5    2   24 1
     6    3    4 ar
     7    3   14 1
     8    4    5 ar
     9    4   25 1
    10    5    6 ar
    11    5    7 1
    12    6   26 1
    13    7    8 1
    14    8   13 1
    15    8    9 1
    16    8   27 1
    17    9   10 1
    18    9   28 1
    19    9   29 1
    20   10   11 1
    21   10   30 1
    22   10   31 1
    23   11   12 1
    24   11   32 1
    25   11   33 1
    26   12   13 1
    27   12   34 1
    28   12   35 1
    29   14   15 1
    30   14   36 1
    31   14   37 1
    32   15   20 ar
    33   15   16 ar
    34   16   17 ar
    35   16   38 1
    36   17   18 ar
    37   17   43 1
    38   18   19 ar
    39   18   22 1
    40   19   20 ar
    41   20   21 1
    42   21   39 1
    43   21   40 1
    44   22   41 1
    45   22   42 1
@<TRIPOS>MOLECULE
CHEMBL359144
   52    57     0     0     0
SMALL
USER_CHARGES

@<TRIPOS>ATOM
      1 C1          0.6027    1.5059    0.0256 C.3       1 <0>        -0.1689
      2 C2          0.5978   -0.0011    0.0167 C.ar      1 <0>         0.0778
      3 C3          0.7711   -0.7002   -1.1492 C.ar      1 <0>        -0.1762
      4 C4          0.7631   -2.0894   -1.1308 C.ar      1 <0>         0.2404
      5 N1          0.5923   -2.7658   -0.0167 N.ar      1 <0>        -0.4982
      6 C5          0.4186   -2.1439    1.1496 C.ar      1 <0>         0.4085
      7 C6          0.4219   -0.7279    1.1996 C.ar      1 <0>        -0.2409
      8 C7          0.2403   -0.0941    2.4537 C.ar      1 <0>         0.5787
      9 N2          0.0801   -0.8575    3.5253 N.ar      1 <0>        -0.5779
     10 C8          0.0882   -2.1844    3.4357 C.ar      1 <0>         0.6997
     11 N3          0.2432   -2.8239    2.2916 N.ar      1 <0>        -0.5724
     12 N4         -0.0838   -2.9256    4.5891 N.pl3     1 <0>        -0.7766
     13 N5          0.2308    1.2796    2.5567 N.pl3     1 <0>        -0.8020
     14 C9          0.9696    0.0364   -2.4489 C.3       1 <0>         0.1612
     15 N6          2.3622    0.4797   -2.5512 N.pl3     1 <0>        -0.7320
     16 C10         2.7757    1.1675   -3.6430 C.ar      1 <0>         0.2324
     17 C11         1.8243    1.4759   -4.7257 C.ar      1 <0>        -0.1624
     18 C12         2.2157    2.1444   -5.7913 C.ar      1 <0>        -0.0537
     19 C13         3.6159    2.5874   -5.9014 C.ar      1 <0>        -0.0885
     20 C14         4.0844    3.3369   -7.0795 C.ar      1 <0>        -0.0947
     21 C15         5.3426    3.7254   -7.1590 C.ar      1 <0>        -0.1111
     22 C16         6.2830    3.4108   -6.0700 C.ar      1 <0>        -0.0395
     23 C17         7.6917    3.8351   -6.1375 C.ar      1 <0>        -0.1041
     24 C18         8.5105    3.5401   -5.1485 C.ar      1 <0>        -0.1130
     25 C19         8.0287    2.7892   -3.9752 C.ar      1 <0>        -0.1046
     26 C20         6.7713    2.4090   -3.9121 C.ar      1 <0>        -0.0446
     27 C21         5.8614    2.7429   -5.0226 C.ar      1 <0>        -0.0407
     28 C22         4.4570    2.3093   -4.9338 C.ar      1 <0>         0.0150
     29 C23         4.0256    1.5661   -3.7362 C.ar      1 <0>        -0.1536
     30 C24         5.0014    1.2811   -2.6738 C.ar      1 <0>        -0.0894
     31 C25         6.2552    1.6589   -2.7573 C.ar      1 <0>        -0.1100
     32 H1          1.5940    1.8644    0.3030 H         1 <0>         0.1070
     33 H2          0.3472    1.8760   -0.9673 H         1 <0>         0.1069
     34 H3         -0.1295    1.8674    0.7476 H         1 <0>         0.1066
     35 H4          0.9004   -2.6280   -2.0567 H         1 <0>         0.1950
     36 H5         -0.2071   -2.4769    5.4402 H         1 <0>         0.4485
     37 H6         -0.0814   -3.8947    4.5477 H         1 <0>         0.4341
     38 H7         -0.4109    1.7180    3.1371 H         1 <0>         0.4312
     39 H8          0.8658    1.8084    2.0488 H         1 <0>         0.4363
     40 H9          0.7374   -0.6273   -3.2818 H         1 <0>         0.0888
     41 H10         0.3092    0.9030   -2.4798 H         1 <0>         0.0887
     42 H11         2.9882    0.2808   -1.8374 H         1 <0>         0.4014
     43 H12         0.7976    1.1507   -4.6449 H         1 <0>         0.1292
     44 H13         1.5129    2.3663   -6.5807 H         1 <0>         0.1354
     45 H14         3.3970    3.5685   -7.8796 H         1 <0>         0.1315
     46 H15         5.6836    4.2745   -8.0241 H         1 <0>         0.1323
     47 H16         8.0520    4.3853   -6.9941 H         1 <0>         0.1318
     48 H17         9.5436    3.8509   -5.1980 H         1 <0>         0.1304
     49 H18         8.7070    2.5513   -3.1691 H         1 <0>         0.1288
     50 H19         4.6783    0.7327   -1.8012 H         1 <0>         0.1085
     51 H20         6.9284    1.4178   -1.9480 H         1 <0>         0.1224
     52 H21         0.2412   -3.7938    2.2786 H         1 <0>         0.4463
@<TRIPOS>BOND
     1    1    2 1
     2    1   32 1
     3    1   33 1
     4    1   34 1
     5    2    7 ar
     6    2    3 ar
     7    3    4 ar
     8    3   14 1
     9    4    5 ar
    10    4   35 1
    11    5    6 ar
    12    6   11 ar
    13    6    7 ar
    14    7    8 ar
    15    8    9 ar
    16    8   13 1
    17    9   10 ar
    18   10   11 ar
    19   10   12 1
    20   11   52 1
    21   12   36 1
    22   12   37 1
    23   13   38 1
    24   13   39 1
    25   14   15 1
    26   14   40 1
    27   14   41 1
    28   15   16 1
    29   15   42 1
    30   16   29 ar
    31   16   17 ar
    32   17   18 ar
    33   17   43 1
    34   18   19 ar
    35   18   44 1
    36   19   28 ar
    37   19   20 ar
    38   20   21 ar
    39   20   45 1
    40   21   22 ar
    41   21   46 1
    42   22   27 ar
    43   22   23 ar
    44   23   24 ar
    45   23   47 1
    46   24   25 ar
    47   24   48 1
    48   25   26 ar
    49   25   49 1
    50   26   31 ar
    51   26   27 ar
    52   27   28 ar
    53   28   29 ar
    54   29   30 ar
    55   30   31 ar
    56   30   50 1
    57   31   51 1
@<TRIPOS>MOLECULE
CHEMBL359144__1
   51    56     0     0     0
SMALL
USER_CHARGES

@<TRIPOS>ATOM
      1 C1          0.6027    1.5059    0.0256 C.3       1 <0>        -0.1554
      2 C2          0.5978   -0.0011    0.0167 C.ar      1 <0>         0.0612
      3 C3          0.7711   -0.7002   -1.1492 C.ar      1 <0>        -0.2207
      4 C4          0.7631   -2.0894   -1.1308 C.ar      1 <0>         0.2104
      5 N1          0.5923   -2.7658   -0.0167 N.ar      1 <0>        -0.4887
      6 C5          0.4186   -2.1439    1.1496 C.ar      1 <0>         0.4174
      7 C6          0.4219   -0.7279    1.1996 C.ar      1 <0>        -0.2827
      8 C7          0.2403   -0.0941    2.4537 C.ar      1 <0>         0.5251
      9 N2          0.0801   -0.8575    3.5253 N.ar      1 <0>        -0.6167
     10 C8          0.0882   -2.1844    3.4357 C.ar      1 <0>         0.6259
     11 N3          0.2432   -2.8239    2.2916 N.ar      1 <0>        -0.5912
     12 N4         -0.0838   -2.9256    4.5891 N.pl3     1 <0>        -0.8096
     13 N5          0.2308    1.2796    2.5567 N.pl3     1 <0>        -0.8448
     14 C9          0.9696    0.0364   -2.4489 C.3       1 <0>         0.1701
     15 N6          2.3622    0.4797   -2.5512 N.pl3     1 <0>        -0.7236
     16 C10         2.7757    1.1675   -3.6430 C.ar      1 <0>         0.2477
     17 C11         1.8243    1.4759   -4.7257 C.ar      1 <0>        -0.1590
     18 C12         2.2157    2.1444   -5.7913 C.ar      1 <0>        -0.0572
     19 C13         3.6159    2.5874   -5.9014 C.ar      1 <0>        -0.0974
     20 C14         4.0844    3.3369   -7.0795 C.ar      1 <0>        -0.0898
     21 C15         5.3426    3.7254   -7.1590 C.ar      1 <0>        -0.1186
     22 C16         6.2830    3.4108   -6.0700 C.ar      1 <0>        -0.0407
     23 C17         7.6917    3.8351   -6.1375 C.ar      1 <0>        -0.1091
     24 C18         8.5105    3.5401   -5.1485 C.ar      1 <0>        -0.1122
     25 C19         8.0287    2.7892   -3.9752 C.ar      1 <0>        -0.1152
     26 C20         6.7713    2.4090   -3.9121 C.ar      1 <0>        -0.0337
     27 C21         5.8614    2.7429   -5.0226 C.ar      1 <0>        -0.0400
     28 C22         4.4570    2.3093   -4.9338 C.ar      1 <0>         0.0208
     29 C23         4.0256    1.5661   -3.7362 C.ar      1 <0>        -0.1732
     30 C24         5.0014    1.2811   -2.6738 C.ar      1 <0>        -0.0741
     31 C25         6.2552    1.6589   -2.7573 C.ar      1 <0>        -0.1275
     32 H1          1.5940    1.8644    0.3030 H         1 <0>         0.0873
     33 H2          0.3472    1.8760   -0.9673 H         1 <0>         0.0858
     34 H3         -0.1295    1.8674    0.7476 H         1 <0>         0.1003
     35 H4          0.9004   -2.6280   -2.0567 H         1 <0>         0.1680
     36 H5         -0.2071   -2.4769    5.4402 H         1 <0>         0.4166
     37 H6         -0.0814   -3.8947    4.5477 H         1 <0>         0.4193
     38 H7         -0.4109    1.7180    3.1371 H         1 <0>         0.4112
     39 H8          0.8658    1.8084    2.0488 H         1 <0>         0.4186
     40 H9          0.7374   -0.6273   -3.2818 H         1 <0>         0.0782
     41 H10         0.3092    0.9030   -2.4798 H         1 <0>         0.0777
     42 H11         2.9882    0.2808   -1.8374 H         1 <0>         0.4027
     43 H12         0.7976    1.1507   -4.6449 H         1 <0>         0.1304
     44 H13         1.5129    2.3663   -6.5807 H         1 <0>         0.1329
     45 H14         3.3970    3.5685   -7.8796 H         1 <0>         0.1288
     46 H15         5.6836    4.2745   -8.0241 H         1 <0>         0.1290
     47 H16         8.0520    4.3853   -6.9941 H         1 <0>         0.1286
     48 H17         9.5436    3.8509   -5.1980 H         1 <0>         0.1272
     49 H18         8.7070    2.5513   -3.1691 H         1 <0>         0.1271
     50 H19         4.6783    0.7327   -1.8012 H         1 <0>         0.1115
     51 H20         6.9284    1.4178   -1.9480 H         1 <0>         0.1213
@<TRIPOS>BOND
     1    1    2 1
     2    1   32 1
     3    1   33 1
     4    1   34 1
     5    2    7 ar
     6    2    3 ar
     7    3    4 ar
     8    3   14 1
     9    4    5 ar
    10    4   35 1
    11    5    6 ar
    12    6   11 ar
    13    6    7 ar
    14    7    8 ar
    15    8    9 ar
    16    8   13 1
    17    9   10 ar
    18   10   11 ar
    19   10   12 1
    20   12   36 1
    21   12   37 1
    22   13   38 1
    23   13   39 1
    24   14   15 1
    25   14   40 1
    26   14   41 1
    27   15   16 1
    28   15   42 1
    29   16   29 ar
    30   16   17 ar
    31   17   18 ar
    32   17   43 1
    33   18   19 ar
    34   18   44 1
    35   19   28 ar
    36   19   20 ar
    37   20   21 ar
    38   20   45 1
    39   21   22 ar
    40   21   46 1
    41   22   27 ar
    42   22   23 ar
    43   23   24 ar
    44   23   47 1
    45   24   25 ar
    46   24   48 1
    47   25   26 ar
    48   25   49 1
    49   26   31 ar
    50   26   27 ar
    51   27   28 ar
    52   28   29 ar
    53   29   30 ar
    54   30   31 ar
    55   30   50 1
    56   31   51 1
@<TRIPOS>MOLECULE
CHEMBL36623
   50    52     0     0     0
SMALL
USER_CHARGES

@<TRIPOS>ATOM
      1 C1         -0.0169    1.3937    0.0097 C.ar      1 <0>        -0.0172
      2 C2          1.1662    2.0965    0.0022 C.ar      1 <0>        -0.2044
      3 C3          2.3811    1.4169   -0.0131 C.ar      1 <0>         0.2257
      4 C4          2.4034    0.0249   -0.0208 C.ar      1 <0>        -0.2029
      5 C5          1.2237   -0.6836   -0.0138 C.ar      1 <0>        -0.0355
      6 C6          0.0021   -0.0041    0.0020 C.ar      1 <0>        -0.1662
      7 C7         -1.2644   -0.7605    0.0105 C.2       1 <0>         0.5497
      8 O1         -2.3263   -0.1682    0.0243 O.2       1 <0>        -0.5608
      9 N1         -1.2445   -2.1081    0.0031 N.am      1 <0>        -0.6793
     10 C8         -2.5022   -2.8593    0.0116 C.3       1 <0>         0.0746
     11 C9         -2.2637   -4.2464    0.6114 C.3       1 <0>        -0.0822
     12 C10        -1.8670   -4.1047    2.0823 C.3       1 <0>        -0.1768
     13 C11        -1.6321   -5.4710    2.6731 C.2       1 <0>         0.4912
     14 O2         -1.7693   -6.4659    1.9818 O.co2     1 <0>        -0.6980
     15 O3         -1.3049   -5.5815    3.8424 O.co2     1 <0>        -0.7204
     16 C12        -3.0110   -3.0030   -1.3996 C.2       1 <0>         0.4980
     17 O4         -2.2242   -3.0459   -2.3300 O.co2     1 <0>        -0.6987
     18 O5         -4.2095   -3.0763   -1.6111 O.co2     1 <0>        -0.7031
     19 N2          3.5749    2.1299   -0.0211 N.pl3     1 <0>        -0.7401
     20 C13         4.8542    1.4162   -0.0371 C.3       1 <0>         0.1794
     21 C14         5.9850    2.4124   -0.0431 C.ar      1 <0>         0.0907
     22 C15         6.5805    2.7719    1.1615 C.ar      1 <0>        -0.0940
     23 C16         7.6094    3.6755    1.1715 C.ar      1 <0>        -0.0857
     24 C17         8.0296    4.2123   -0.0541 C.ar      1 <0>         0.1619
     25 C18         7.3784    3.8007   -1.2365 C.ar      1 <0>        -0.0182
     26 N3          6.3897    2.9175   -1.1867 N.ar      1 <0>        -0.3883
     27 C19         7.8374    4.3784   -2.5116 C.2       1 <0>         0.5753
     28 N4          8.8556    5.2678   -2.4662 N.am      1 <0>        -0.6650
     29 C20         9.4280    5.6083   -1.2757 C.2       1 <0>         0.6420
     30 N5          9.0381    5.1100   -0.1289 N.2       1 <0>        -0.5840
     31 N6         10.4583    6.5145   -1.2798 N.pl3     1 <0>        -0.8234
     32 O6          7.3195    4.0663   -3.5678 O.2       1 <0>        -0.4738
     33 H1         -0.9590    1.9215    0.0260 H         1 <0>         0.1327
     34 H2          1.1522    3.1764    0.0078 H         1 <0>         0.1191
     35 H3          3.3474   -0.4995   -0.0326 H         1 <0>         0.1233
     36 H4          1.2416   -1.7634   -0.0204 H         1 <0>         0.1288
     37 H5         -0.3974   -2.5806   -0.0078 H         1 <0>         0.3903
     38 H6         -3.2399   -2.3261    0.6112 H         1 <0>         0.0768
     39 H7         -3.1771   -4.8365    0.5367 H         1 <0>         0.0714
     40 H8         -1.4631   -4.7456    0.0656 H         1 <0>         0.0597
     41 H9         -0.9536   -3.5146    2.1570 H         1 <0>         0.0518
     42 H10        -2.6677   -3.6056    2.6281 H         1 <0>         0.0524
     43 H11         3.5606    3.0997   -0.0161 H         1 <0>         0.3974
     44 H12         4.9299    0.7860    0.8490 H         1 <0>         0.0824
     45 H13         4.9126    0.7950   -0.9309 H         1 <0>         0.0816
     46 H14         6.2317    2.3393    2.0875 H         1 <0>         0.1513
     47 H15         8.0836    3.9668    2.0970 H         1 <0>         0.1515
     48 H16        10.7640    6.8976   -2.1169 H         1 <0>         0.4136
     49 H17        10.8810    6.7720   -0.4456 H         1 <0>         0.4289
     50 H18         9.1819    5.6669   -3.2879 H         1 <0>         0.4166
@<TRIPOS>BOND
     1    1    6 ar
     2    1    2 ar
     3    1   33 1
     4    2    3 ar
     5    2   34 1
     6    3    4 ar
     7    3   19 1
     8    4    5 ar
     9    4   35 1
    10    5    6 ar
    11    5   36 1
    12    6    7 1
    13    7    8 2
    14    7    9 am
    15    9   10 1
    16    9   37 1
    17   10   11 1
    18   10   16 1
    19   10   38 1
    20   11   12 1
    21   11   39 1
    22   11   40 1
    23   12   13 1
    24   12   41 1
    25   12   42 1
    26   13   14 2
    27   13   15 1
    28   16   17 2
    29   16   18 1
    30   19   20 1
    31   19   43 1
    32   20   21 1
    33   20   44 1
    34   20   45 1
    35   21   26 ar
    36   21   22 ar
    37   22   23 ar
    38   22   46 1
    39   23   24 ar
    40   23   47 1
    41   24   30 1
    42   24   25 ar
    43   25   26 ar
    44   25   27 1
    45   27   28 am
    46   27   32 2
    47   28   29 1
    48   28   50 1
    49   29   30 2
    50   29   31 1
    51   31   48 1
    52   31   49 1
@<TRIPOS>MOLECULE
CHEMBL36623__1
   50    52     0     0     0
SMALL
USER_CHARGES

@<TRIPOS>ATOM
      1 C1         -0.0169    1.3937    0.0097 C.ar      1 <0>        -0.0173
      2 C2          1.1662    2.0965    0.0022 C.ar      1 <0>        -0.2033
      3 C3          2.3811    1.4169   -0.0131 C.ar      1 <0>         0.2247
      4 C4          2.4034    0.0249   -0.0208 C.ar      1 <0>        -0.2024
      5 C5          1.2237   -0.6836   -0.0138 C.ar      1 <0>        -0.0356
      6 C6          0.0021   -0.0041    0.0020 C.ar      1 <0>        -0.1650
      7 C7         -1.2644   -0.7605    0.0105 C.2       1 <0>         0.5495
      8 O1         -2.3263   -0.1682    0.0243 O.2       1 <0>        -0.5603
      9 N1         -1.2445   -2.1081    0.0031 N.am      1 <0>        -0.6791
     10 C8         -2.5022   -2.8593    0.0116 C.3       1 <0>         0.0746
     11 C9         -2.2637   -4.2464    0.6114 C.3       1 <0>        -0.0823
     12 C10        -1.8670   -4.1047    2.0823 C.3       1 <0>        -0.1767
     13 C11        -1.6321   -5.4710    2.6731 C.2       1 <0>         0.4911
     14 O2         -1.7693   -6.4659    1.9818 O.co2     1 <0>        -0.6977
     15 O3         -1.3049   -5.5815    3.8424 O.co2     1 <0>        -0.7207
     16 C12        -3.0110   -3.0030   -1.3996 C.2       1 <0>         0.4979
     17 O4         -2.2242   -3.0459   -2.3300 O.co2     1 <0>        -0.6984
     18 O5         -4.2095   -3.0763   -1.6111 O.co2     1 <0>        -0.7030
     19 N2          3.5749    2.1299   -0.0211 N.pl3     1 <0>        -0.7405
     20 C13         4.8542    1.4162   -0.0371 C.3       1 <0>         0.1775
     21 C14         5.9850    2.4124   -0.0431 C.ar      1 <0>         0.0935
     22 C15         6.5807    2.7725    1.1587 C.ar      1 <0>        -0.0924
     23 C16         7.6187    3.6860    1.1596 C.ar      1 <0>        -0.1162
     24 C17         8.0275    4.2128   -0.0626 C.ar      1 <0>         0.1383
     25 C18         7.3783    3.8018   -1.2371 C.ar      1 <0>         0.0132
     26 N3          6.3911    2.9188   -1.1867 N.ar      1 <0>        -0.3803
     27 C19         7.8378    4.3818   -2.5174 C.2       1 <0>         0.5579
     28 N4          8.8445    5.2651   -2.4928 N.2       1 <0>        -0.6391
     29 C20         9.4261    5.6232   -1.3673 C.2       1 <0>         0.6763
     30 N5          9.0554    5.1309   -0.1567 N.pl3     1 <0>        -0.6456
     31 N6         10.4475    6.5299   -1.4191 N.pl3     1 <0>        -0.8168
     32 O6          7.3129    4.0632   -3.5708 O.2       1 <0>        -0.4612
     33 H1         -0.9590    1.9215    0.0260 H         1 <0>         0.1331
     34 H2          1.1522    3.1764    0.0078 H         1 <0>         0.1193
     35 H3          3.3474   -0.4995   -0.0326 H         1 <0>         0.1232
     36 H4          1.2416   -1.7634   -0.0204 H         1 <0>         0.1291
     37 H5         -0.3974   -2.5806   -0.0078 H         1 <0>         0.3903
     38 H6         -3.2399   -2.3261    0.6112 H         1 <0>         0.0768
     39 H7         -3.1771   -4.8365    0.5367 H         1 <0>         0.0715
     40 H8         -1.4631   -4.7456    0.0656 H         1 <0>         0.0598
     41 H9         -0.9536   -3.5146    2.1570 H         1 <0>         0.0516
     42 H10        -2.6677   -3.6056    2.6281 H         1 <0>         0.0524
     43 H11         3.5606    3.0997   -0.0161 H         1 <0>         0.3975
     44 H12         4.9299    0.7860    0.8490 H         1 <0>         0.0829
     45 H13         4.9126    0.7950   -0.9309 H         1 <0>         0.0843
     46 H14         6.2350    2.3419    2.0869 H         1 <0>         0.1549
     47 H15         8.0978    3.9823    2.0810 H         1 <0>         0.1511
     48 H16        10.7292    6.8949   -2.2726 H         1 <0>         0.4324
     49 H17        10.8907    6.8085   -0.6025 H         1 <0>         0.4124
     50 H18         9.5143    5.4257    0.6455 H         1 <0>         0.4168
@<TRIPOS>BOND
     1    1    6 ar
     2    1    2 ar
     3    1   33 1
     4    2    3 ar
     5    2   34 1
     6    3    4 ar
     7    3   19 1
     8    4    5 ar
     9    4   35 1
    10    5    6 ar
    11    5   36 1
    12    6    7 1
    13    7    8 2
    14    7    9 am
    15    9   10 1
    16    9   37 1
    17   10   11 1
    18   10   16 1
    19   10   38 1
    20   11   12 1
    21   11   39 1
    22   11   40 1
    23   12   13 1
    24   12   41 1
    25   12   42 1
    26   13   14 2
    27   13   15 1
    28   16   17 2
    29   16   18 1
    30   19   20 1
    31   19   43 1
    32   20   21 1
    33   20   44 1
    34   20   45 1
    35   21   26 ar
    36   21   22 ar
    37   22   23 ar
    38   22   46 1
    39   23   24 ar
    40   23   47 1
    41   24   30 1
    42   24   25 ar
    43   25   26 ar
    44   25   27 1
    45   27   28 1
    46   27   32 2
    47   28   29 2
    48   29   30 1
    49   29   31 1
    50   30   50 1
    51   31   48 1
    52   31   49 1
@<TRIPOS>MOLECULE
CHEMBL36623__2
   50    52     0     0     0
SMALL
USER_CHARGES

@<TRIPOS>ATOM
      1 C1         -0.0169    1.3937    0.0097 C.ar      1 <0>        -0.0176
      2 C2          1.1662    2.0965    0.0022 C.ar      1 <0>        -0.2041
      3 C3          2.3811    1.4169   -0.0131 C.ar      1 <0>         0.2246
      4 C4          2.4034    0.0249   -0.0208 C.ar      1 <0>        -0.2029
      5 C5          1.2237   -0.6836   -0.0138 C.ar      1 <0>        -0.0365
      6 C6          0.0021   -0.0041    0.0020 C.ar      1 <0>        -0.1635
      7 C7         -1.2644   -0.7605    0.0105 C.2       1 <0>         0.5566
      8 O1         -2.3263   -0.1682    0.0243 O.2       1 <0>        -0.5623
      9 N1         -1.2445   -2.1081    0.0031 N.am      1 <0>        -0.6797
     10 C8         -2.5022   -2.8593    0.0116 C.3       1 <0>         0.0734
     11 C9         -2.2758   -4.2399   -0.6078 C.3       1 <0>        -0.0800
     12 C10        -1.9084   -4.0824   -2.0846 C.3       1 <0>        -0.1778
     13 C11        -1.6854   -5.4422   -2.6946 C.2       1 <0>         0.4910
     14 O2         -1.8089   -6.4445   -2.0115 O.co2     1 <0>        -0.6979
     15 O3         -1.3815   -5.5401   -3.8713 O.co2     1 <0>        -0.7207
     16 C12        -2.9829   -3.0182    1.4310 C.2       1 <0>         0.4956
     17 O4         -2.3350   -2.5475    2.3503 O.co2     1 <0>        -0.6970
     18 O5         -4.0198   -3.6173    1.6600 O.co2     1 <0>        -0.7021
     19 N2          3.5749    2.1299   -0.0211 N.pl3     1 <0>        -0.7404
     20 C13         4.8542    1.4162   -0.0371 C.3       1 <0>         0.1797
     21 C14         5.9850    2.4124   -0.0431 C.ar      1 <0>         0.0908
     22 C15         6.5805    2.7719    1.1615 C.ar      1 <0>        -0.0942
     23 C16         7.6094    3.6755    1.1715 C.ar      1 <0>        -0.0858
     24 C17         8.0296    4.2123   -0.0541 C.ar      1 <0>         0.1618
     25 C18         7.3784    3.8007   -1.2365 C.ar      1 <0>        -0.0180
     26 N3          6.3897    2.9175   -1.1867 N.ar      1 <0>        -0.3882
     27 C19         7.8374    4.3784   -2.5116 C.2       1 <0>         0.5752
     28 N4          8.8556    5.2678   -2.4662 N.am      1 <0>        -0.6649
     29 C20         9.4280    5.6083   -1.2757 C.2       1 <0>         0.6420
     30 N5          9.0381    5.1100   -0.1289 N.2       1 <0>        -0.5841
     31 N6         10.4583    6.5145   -1.2798 N.pl3     1 <0>        -0.8235
     32 O6          7.3195    4.0663   -3.5678 O.2       1 <0>        -0.4736
     33 H1         -0.9590    1.9215    0.0260 H         1 <0>         0.1324
     34 H2          1.1522    3.1764    0.0078 H         1 <0>         0.1187
     35 H3          3.3474   -0.4995   -0.0326 H         1 <0>         0.1228
     36 H4          1.2416   -1.7634   -0.0204 H         1 <0>         0.1278
     37 H5         -0.3974   -2.5806   -0.0078 H         1 <0>         0.3881
     38 H6         -3.2516   -2.3197   -0.5676 H         1 <0>         0.0768
     39 H7         -1.4645   -4.7448   -0.0833 H         1 <0>         0.0544
     40 H8         -3.1876   -4.8309   -0.5212 H         1 <0>         0.0779
     41 H9         -2.7197   -3.5775   -2.6090 H         1 <0>         0.0519
     42 H10        -0.9966   -3.4914   -2.1711 H         1 <0>         0.0509
     43 H11         3.5606    3.0997   -0.0161 H         1 <0>         0.3973
     44 H12         4.9299    0.7860    0.8490 H         1 <0>         0.0819
     45 H13         4.9126    0.7950   -0.9309 H         1 <0>         0.0816
     46 H14         6.2317    2.3393    2.0875 H         1 <0>         0.1512
     47 H15         8.0836    3.9668    2.0970 H         1 <0>         0.1513
     48 H16        10.7640    6.8976   -2.1169 H         1 <0>         0.4136
     49 H17        10.8810    6.7720   -0.4456 H         1 <0>         0.4288
     50 H18         9.1819    5.6669   -3.2879 H         1 <0>         0.4166
@<TRIPOS>BOND
     1    1    6 ar
     2    1    2 ar
     3    1   33 1
     4    2    3 ar
     5    2   34 1
     6    3    4 ar
     7    3   19 1
     8    4    5 ar
     9    4   35 1
    10    5    6 ar
    11    5   36 1
    12    6    7 1
    13    7    8 2
    14    7    9 am
    15    9   10 1
    16    9   37 1
    17   10   11 1
    18   10   16 1
    19   10   38 1
    20   11   12 1
    21   11   39 1
    22   11   40 1
    23   12   13 1
    24   12   41 1
    25   12   42 1
    26   13   14 2
    27   13   15 1
    28   16   17 2
    29   16   18 1
    30   19   20 1
    31   19   43 1
    32   20   21 1
    33   20   44 1
    34   20   45 1
    35   21   26 ar
    36   21   22 ar
    37   22   23 ar
    38   22   46 1
    39   23   24 ar
    40   23   47 1
    41   24   30 1
    42   24   25 ar
    43   25   26 ar
    44   25   27 1
    45   27   28 am
    46   27   32 2
    47   28   29 1
    48   28   50 1
    49   29   30 2
    50   29   31 1
    51   31   48 1
    52   31   49 1
@<TRIPOS>MOLECULE
CHEMBL36623__3
   50    52     0     0     0
SMALL
USER_CHARGES

@<TRIPOS>ATOM
      1 C1         -0.0169    1.3937    0.0097 C.ar      1 <0>        -0.0177
      2 C2          1.1662    2.0965    0.0022 C.ar      1 <0>        -0.2030
      3 C3          2.3811    1.4169   -0.0131 C.ar      1 <0>         0.2236
      4 C4          2.4034    0.0249   -0.0208 C.ar      1 <0>        -0.2024
      5 C5          1.2237   -0.6836   -0.0138 C.ar      1 <0>        -0.0367
      6 C6          0.0021   -0.0041    0.0020 C.ar      1 <0>        -0.1623
      7 C7         -1.2644   -0.7605    0.0105 C.2       1 <0>         0.5564
      8 O1         -2.3263   -0.1682    0.0243 O.2       1 <0>        -0.5618
      9 N1         -1.2445   -2.1081    0.0031 N.am      1 <0>        -0.6795
     10 C8         -2.5022   -2.8593    0.0116 C.3       1 <0>         0.0734
     11 C9         -2.2758   -4.2399   -0.6078 C.3       1 <0>        -0.0799
     12 C10        -1.9084   -4.0824   -2.0846 C.3       1 <0>        -0.1779
     13 C11        -1.6854   -5.4422   -2.6946 C.2       1 <0>         0.4909
     14 O2         -1.8089   -6.4445   -2.0115 O.co2     1 <0>        -0.6980
     15 O3         -1.3815   -5.5401   -3.8713 O.co2     1 <0>        -0.7204
     16 C12        -2.9829   -3.0182    1.4310 C.2       1 <0>         0.4958
     17 O4         -2.3350   -2.5475    2.3503 O.co2     1 <0>        -0.6974
     18 O5         -4.0198   -3.6173    1.6600 O.co2     1 <0>        -0.7019
     19 N2          3.5749    2.1299   -0.0211 N.pl3     1 <0>        -0.7408
     20 C13         4.8542    1.4162   -0.0371 C.3       1 <0>         0.1777
     21 C14         5.9850    2.4124   -0.0431 C.ar      1 <0>         0.0937
     22 C15         6.5807    2.7725    1.1587 C.ar      1 <0>        -0.0925
     23 C16         7.6187    3.6860    1.1596 C.ar      1 <0>        -0.1163
     24 C17         8.0275    4.2128   -0.0626 C.ar      1 <0>         0.1382
     25 C18         7.3783    3.8018   -1.2371 C.ar      1 <0>         0.0134
     26 N3          6.3911    2.9188   -1.1867 N.ar      1 <0>        -0.3802
     27 C19         7.8378    4.3818   -2.5174 C.2       1 <0>         0.5578
     28 N4          8.8445    5.2651   -2.4928 N.2       1 <0>        -0.6390
     29 C20         9.4261    5.6232   -1.3673 C.2       1 <0>         0.6762
     30 N5          9.0554    5.1309   -0.1567 N.pl3     1 <0>        -0.6456
     31 N6         10.4475    6.5299   -1.4191 N.pl3     1 <0>        -0.8169
     32 O6          7.3129    4.0632   -3.5708 O.2       1 <0>        -0.4610
     33 H1         -0.9590    1.9215    0.0260 H         1 <0>         0.1329
     34 H2          1.1522    3.1764    0.0078 H         1 <0>         0.1190
     35 H3          3.3474   -0.4995   -0.0326 H         1 <0>         0.1227
     36 H4          1.2416   -1.7634   -0.0204 H         1 <0>         0.1281
     37 H5         -0.3974   -2.5806   -0.0078 H         1 <0>         0.3881
     38 H6         -3.2516   -2.3197   -0.5676 H         1 <0>         0.0770
     39 H7         -1.4645   -4.7448   -0.0833 H         1 <0>         0.0543
     40 H8         -3.1876   -4.8309   -0.5212 H         1 <0>         0.0780
     41 H9         -2.7197   -3.5775   -2.6090 H         1 <0>         0.0521
     42 H10        -0.9966   -3.4914   -2.1711 H         1 <0>         0.0509
     43 H11         3.5606    3.0997   -0.0161 H         1 <0>         0.3974
     44 H12         4.9299    0.7860    0.8490 H         1 <0>         0.0824
     45 H13         4.9126    0.7950   -0.9309 H         1 <0>         0.0843
     46 H14         6.2350    2.3419    2.0869 H         1 <0>         0.1547
     47 H15         8.0978    3.9823    2.0810 H         1 <0>         0.1509
     48 H16        10.7292    6.8949   -2.2726 H         1 <0>         0.4324
     49 H17        10.8907    6.8085   -0.6025 H         1 <0>         0.4124
     50 H18         9.5143    5.4257    0.6455 H         1 <0>         0.4167
@<TRIPOS>BOND
     1    1    6 ar
     2    1    2 ar
     3    1   33 1
     4    2    3 ar
     5    2   34 1
     6    3    4 ar
     7    3   19 1
     8    4    5 ar
     9    4   35 1
    10    5    6 ar
    11    5   36 1
    12    6    7 1
    13    7    8 2
    14    7    9 am
    15    9   10 1
    16    9   37 1
    17   10   11 1
    18   10   16 1
    19   10   38 1
    20   11   12 1
    21   11   39 1
    22   11   40 1
    23   12   13 1
    24   12   41 1
    25   12   42 1
    26   13   14 2
    27   13   15 1
    28   16   17 2
    29   16   18 1
    30   19   20 1
    31   19   43 1
    32   20   21 1
    33   20   44 1
    34   20   45 1
    35   21   26 ar
    36   21   22 ar
    37   22   23 ar
    38   22   46 1
    39   23   24 ar
    40   23   47 1
    41   24   30 1
    42   24   25 ar
    43   25   26 ar
    44   25   27 1
    45   27   28 1
    46   27   32 2
    47   28   29 2
    48   29   30 1
    49   29   31 1
    50   30   50 1
    51   31   48 1
    52   31   49 1
@<TRIPOS>MOLECULE
CHEMBL82853
   58    60     0     0     0
SMALL
USER_CHARGES

@<TRIPOS>ATOM
      1 C1          4.0714   -3.1969   -2.3176 C.3       1 <0>        -0.1534
      2 C2          2.9267   -4.2100   -2.3814 C.3       1 <0>        -0.1060
      3 C3          2.1529   -4.1759   -1.0887 C.ar      1 <0>         0.2372
      4 C4          1.1445   -3.2345   -0.8945 C.ar      1 <0>        -0.1758
      5 C5          0.4511   -3.2442    0.3299 C.ar      1 <0>         0.5462
      6 N1          0.7826   -4.1450    1.2477 N.ar      1 <0>        -0.5710
      7 C6          1.7491   -5.0213    1.0183 C.ar      1 <0>         0.6639
      8 N2          2.4187   -5.0432   -0.1253 N.ar      1 <0>        -0.5714
      9 N3          2.0653   -5.9441    1.9992 N.pl3     1 <0>        -0.7893
     10 N4         -0.5587   -2.3305    0.5736 N.pl3     1 <0>        -0.7654
     11 C7          0.8111   -2.2478   -1.9501 C.ar      1 <0>        -0.0535
     12 C8          1.0761   -0.8931   -1.7488 C.ar      1 <0>        -0.0890
     13 C9          0.7671    0.0278   -2.7301 C.ar      1 <0>        -0.0963
     14 C10         0.1937   -0.3857   -3.9175 C.ar      1 <0>         0.0049
     15 C11        -0.0764   -1.7396   -4.1307 C.ar      1 <0>         0.0464
     16 C12         0.2388   -2.6726   -3.1450 C.ar      1 <0>        -0.0863
     17 N5         -0.6462   -2.1501   -5.3096 N.2       1 <0>        -0.2339
     18 N6         -1.5033   -3.1142   -5.3104 N.2       1 <0>         0.1164
     19 N7         -2.1125   -3.5108   -4.1128 N.pl3     1 <0>        -0.5599
     20 C13        -2.4919   -2.5063   -3.1162 C.3       1 <0>         0.1129
     21 C14        -3.9526   -2.1035   -3.3285 C.3       1 <0>        -0.0967
     22 C15        -4.3068   -0.9827   -2.3854 C.ar      1 <0>        -0.0862
     23 C16        -4.7107   -1.2673   -1.0944 C.ar      1 <0>        -0.1183
     24 C17        -5.0356   -0.2393   -0.2293 C.ar      1 <0>        -0.1184
     25 C18        -4.9562    1.0735   -0.6551 C.ar      1 <0>        -0.1185
     26 C19        -4.5514    1.3582   -1.9459 C.ar      1 <0>        -0.1130
     27 C20        -4.2223    0.3303   -2.8096 C.ar      1 <0>        -0.1130
     28 C21        -2.3702   -4.9301   -3.8570 C.3       1 <0>         0.1427
     29 C22        -1.1603   -5.5497   -3.1548 C.3       1 <0>         0.0414
     30 O1         -0.9204   -4.8633   -1.9247 O.3       1 <0>        -0.5566
     31 Cl1        -0.1921    0.7790   -5.1457 Cl        1 <0>        -0.0214
     32 H1          4.6835   -3.2832   -3.2153 H         1 <0>         0.0893
     33 H2          3.6613   -2.1890   -2.2530 H         1 <0>         0.0734
     34 H3          4.6848   -3.3965   -1.4389 H         1 <0>         0.0642
     35 H4          2.2634   -3.9573   -3.2086 H         1 <0>         0.1171
     36 H5          3.3341   -5.2093   -2.5347 H         1 <0>         0.1046
     37 H6          1.5818   -5.9431    2.8401 H         1 <0>         0.4460
     38 H7          2.7707   -6.5922    1.8462 H         1 <0>         0.4307
     39 H8         -0.7462   -1.6311   -0.0719 H         1 <0>         0.4314
     40 H9         -1.0793   -2.3891    1.3900 H         1 <0>         0.4293
     41 H10         1.5237   -0.5636   -0.8228 H         1 <0>         0.1406
     42 H11         0.9740    1.0755   -2.5689 H         1 <0>         0.1524
     43 H12         0.0358   -3.7211   -3.3063 H         1 <0>         0.1555
     44 H13        -2.3717   -2.9231   -2.1162 H         1 <0>         0.0887
     45 H14        -1.8538   -1.6291   -3.2233 H         1 <0>         0.0767
     46 H15        -4.0918   -1.7705   -4.3571 H         1 <0>         0.0768
     47 H16        -4.5978   -2.9601   -3.1334 H         1 <0>         0.0788
     48 H17        -4.7727   -2.2930   -0.7618 H         1 <0>         0.1189
     49 H18        -5.3518   -0.4617    0.7791 H         1 <0>         0.1229
     50 H19        -5.2107    1.8767    0.0205 H         1 <0>         0.1239
     51 H20        -4.4896    2.3838   -2.2786 H         1 <0>         0.1245
     52 H21        -3.9025    0.5528   -3.8169 H         1 <0>         0.1196
     53 H22        -3.2501   -5.0309   -3.2216 H         1 <0>         0.0956
     54 H23        -2.5440   -5.4440   -4.8025 H         1 <0>         0.1073
     55 H24        -1.3580   -6.6021   -2.9511 H         1 <0>         0.0700
     56 H25        -0.2836   -5.4623   -3.7966 H         1 <0>         0.0491
     57 H26        -0.1272   -5.1592   -1.4573 H         1 <0>         0.3519
     58 H27         3.1171   -5.7033   -0.2569 H         1 <0>         0.4422
@<TRIPOS>BOND
     1    1    2 1
     2    1   32 1
     3    1   33 1
     4    1   34 1
     5    2    3 1
     6    2   35 1
     7    2   36 1
     8    3    8 ar
     9    3    4 ar
    10    4    5 ar
    11    4   11 1
    12    5    6 ar
    13    5   10 1
    14    6    7 ar
    15    7    8 ar
    16    7    9 1
    17    8   58 1
    18    9   37 1
    19    9   38 1
    20   10   39 1
    21   10   40 1
    22   11   16 ar
    23   11   12 ar
    24   12   13 ar
    25   12   41 1
    26   13   14 ar
    27   13   42 1
    28   14   15 ar
    29   14   31 1
    30   15   16 ar
    31   15   17 1
    32   16   43 1
    33   17   18 2
    34   18   19 1
    35   19   20 1
    36   19   28 1
    37   20   21 1
    38   20   44 1
    39   20   45 1
    40   21   22 1
    41   21   46 1
    42   21   47 1
    43   22   27 ar
    44   22   23 ar
    45   23   24 ar
    46   23   48 1
    47   24   25 ar
    48   24   49 1
    49   25   26 ar
    50   25   50 1
    51   26   27 ar
    52   26   51 1
    53   27   52 1
    54   28   29 1
    55   28   53 1
    56   28   54 1
    57   29   30 1
    58   29   55 1
    59   29   56 1
    60   30   57 1
@<TRIPOS>MOLECULE
CHEMBL82853__1
   57    59     0     0     0
SMALL
USER_CHARGES

@<TRIPOS>ATOM
      1 C1         -2.0778    5.0609   -0.5822 C.3       1 <0>        -0.1547
      2 C2         -1.8223    4.1473    0.6182 C.3       1 <0>        -0.0777
      3 C3         -0.4373    3.5617    0.5180 C.ar      1 <0>         0.2569
      4 C4         -0.2270    2.3576   -0.1504 C.ar      1 <0>        -0.2714
      5 C5          1.0849    1.8529   -0.2166 C.ar      1 <0>         0.5082
      6 N1          2.0661    2.5398    0.3571 N.ar      1 <0>        -0.6277
      7 C6          1.8182    3.6811    0.9821 C.ar      1 <0>         0.6083
      8 N2          0.5956    4.1872    1.0589 N.ar      1 <0>        -0.6035
      9 N3          2.8670    4.3675    1.5675 N.pl3     1 <0>        -0.8193
     10 N4          1.3480    0.6611   -0.8681 N.pl3     1 <0>        -0.8253
     11 C7         -1.3560    1.6267   -0.7752 C.ar      1 <0>        -0.0046
     12 C8         -1.7937    0.4196   -0.2299 C.ar      1 <0>        -0.0923
     13 C9         -2.8450   -0.2628   -0.8093 C.ar      1 <0>        -0.1063
     14 C10        -3.4703    0.2447   -1.9323 C.ar      1 <0>        -0.0089
     15 C11        -3.0409    1.4525   -2.4873 C.ar      1 <0>         0.0264
     16 C12        -1.9838    2.1469   -1.9026 C.ar      1 <0>        -0.0920
     17 N5         -3.6615    1.9562   -3.6027 N.2       1 <0>        -0.2216
     18 N6         -2.9619    2.5021   -4.5390 N.2       1 <0>         0.0981
     19 N7         -1.5664    2.3780   -4.5338 N.pl3     1 <0>        -0.5664
     20 C13        -0.9465    1.0934   -4.1995 C.3       1 <0>         0.1190
     21 C14        -0.4723    0.4070   -5.4820 C.3       1 <0>        -0.0946
     22 C15         0.1634   -0.9155   -5.1383 C.ar      1 <0>        -0.0815
     23 C16         1.5329   -1.0015   -4.9713 C.ar      1 <0>        -0.1138
     24 C17         2.1159   -2.2146   -4.6561 C.ar      1 <0>        -0.1178
     25 C18         1.3294   -3.3416   -4.5074 C.ar      1 <0>        -0.1217
     26 C19        -0.0402   -3.2554   -4.6735 C.ar      1 <0>        -0.1157
     27 C20        -0.6237   -2.0415   -4.9846 C.ar      1 <0>        -0.1143
     28 C21        -0.7271    3.5329   -4.8626 C.3       1 <0>         0.1474
     29 C22        -0.4763    4.3575   -3.5985 C.3       1 <0>         0.0364
     30 O1          0.2914    3.5870   -2.6716 O.3       1 <0>        -0.5543
     31 Cl1        -4.7909   -0.6202   -2.6545 Cl        1 <0>        -0.0461
     32 H1         -1.3427    5.8656   -0.5893 H         1 <0>         0.0612
     33 H2         -1.9933    4.4834   -1.5028 H         1 <0>         0.0564
     34 H3         -3.0795    5.4845   -0.5097 H         1 <0>         0.0694
     35 H4         -1.9068    4.7248    1.5388 H         1 <0>         0.0897
     36 H5         -2.5574    3.3426    0.6253 H         1 <0>         0.0841
     37 H6          3.7680    4.0118    1.5166 H         1 <0>         0.4140
     38 H7          2.7014    5.2046    2.0287 H         1 <0>         0.4155
     39 H8          0.6423    0.2095   -1.3568 H         1 <0>         0.4110
     40 H9          2.2382    0.2771   -0.8360 H         1 <0>         0.4072
     41 H10        -1.3088    0.0177    0.6474 H         1 <0>         0.1343
     42 H11        -3.1796   -1.1971   -0.3833 H         1 <0>         0.1415
     43 H12        -1.6505    3.0832   -2.3253 H         1 <0>         0.1610
     44 H13        -0.0944    1.2616   -3.5410 H         1 <0>         0.0853
     45 H14        -1.6753    0.4585   -3.6957 H         1 <0>         0.0755
     46 H15        -1.3242    0.2402   -6.1412 H         1 <0>         0.0751
     47 H16         0.2577    1.0411   -5.9850 H         1 <0>         0.0762
     48 H17         2.1474   -0.1210   -5.0874 H         1 <0>         0.1202
     49 H18         3.1860   -2.2819   -4.5263 H         1 <0>         0.1216
     50 H19         1.7850   -4.2895   -4.2618 H         1 <0>         0.1212
     51 H20        -0.6547   -4.1360   -4.5577 H         1 <0>         0.1218
     52 H21        -1.6942   -1.9734   -5.1107 H         1 <0>         0.1185
     53 H22         0.2248    3.1872   -5.2657 H         1 <0>         0.0915
     54 H23        -1.2332    4.1503   -5.6047 H         1 <0>         0.0985
     55 H24         0.0707    5.2637   -3.8584 H         1 <0>         0.0614
     56 H25        -1.4303    4.6265   -3.1449 H         1 <0>         0.0494
     57 H26         0.4651    4.0381   -1.8341 H         1 <0>         0.3692
@<TRIPOS>BOND
     1    1    2 1
     2    1   32 1
     3    1   33 1
     4    1   34 1
     5    2    3 1
     6    2   35 1
     7    2   36 1
     8    3    8 ar
     9    3    4 ar
    10    4    5 ar
    11    4   11 1
    12    5    6 ar
    13    5   10 1
    14    6    7 ar
    15    7    8 ar
    16    7    9 1
    17    9   37 1
    18    9   38 1
    19   10   39 1
    20   10   40 1
    21   11   16 ar
    22   11   12 ar
    23   12   13 ar
    24   12   41 1
    25   13   14 ar
    26   13   42 1
    27   14   15 ar
    28   14   31 1
    29   15   16 ar
    30   15   17 1
    31   16   43 1
    32   17   18 2
    33   18   19 1
    34   19   20 1
    35   19   28 1
    36   20   21 1
    37   20   44 1
    38   20   45 1
    39   21   22 1
    40   21   46 1
    41   21   47 1
    42   22   27 ar
    43   22   23 ar
    44   23   24 ar
    45   23   48 1
    46   24   25 ar
    47   24   49 1
    48   25   26 ar
    49   25   50 1
    50   26   27 ar
    51   26   51 1
    52   27   52 1
    53   28   29 1
    54   28   53 1
    55   28   54 1
    56   29   30 1
    57   29   55 1
    58   29   56 1
    59   30   57 1
@<TRIPOS>MOLECULE
CHEMBL82853__2
   58    60     0     0     0
SMALL
USER_CHARGES

@<TRIPOS>ATOM
      1 C1          0.8937   -1.6696   -0.2830 C.3       1 <0>        -0.1540
      2 C2          0.1058   -0.3831   -0.0280 C.3       1 <0>        -0.1056
      3 C3         -1.3705   -0.6716   -0.1204 C.ar      1 <0>         0.2537
      4 C4         -2.0170   -0.6540   -1.3543 C.ar      1 <0>        -0.1885
      5 C5         -3.3963   -0.9305   -1.3874 C.ar      1 <0>         0.5406
      6 N1         -4.0249   -1.1959   -0.2480 N.ar      1 <0>        -0.5743
      7 C6         -3.3681   -1.2013    0.9023 C.ar      1 <0>         0.6661
      8 N2         -2.0684   -0.9503    0.9687 N.ar      1 <0>        -0.5688
      9 N3         -4.0581   -1.4823    2.0680 N.pl3     1 <0>        -0.7908
     10 N4         -4.0861   -0.9254   -2.5867 N.pl3     1 <0>        -0.7719
     11 C7         -1.2714   -0.3515   -2.5999 C.ar      1 <0>        -0.0544
     12 C8         -0.7741    0.9329   -2.8218 C.ar      1 <0>        -0.0896
     13 C9         -0.0791    1.2173   -3.9805 C.ar      1 <0>        -0.0914
     14 C10         0.1287    0.2326   -4.9276 C.ar      1 <0>         0.0066
     15 C11        -0.3645   -1.0572   -4.7165 C.ar      1 <0>         0.1326
     16 C12        -1.0618   -1.3497   -3.5462 C.ar      1 <0>        -0.1149
     17 N5         -0.1585   -2.0349   -5.6572 N.2       1 <0>        -0.3443
     18 N6         -0.6147   -3.2254   -5.4606 N.2       1 <0>         0.0547
     19 N7         -0.4044   -4.2236   -6.4209 N.pl3     1 <0>        -0.4549
     20 C13        -0.9224   -5.5756   -6.1977 C.3       1 <0>         0.1518
     21 C14        -2.2852   -5.7185   -6.8783 C.3       1 <0>        -0.0965
     22 C15        -2.8181   -7.1094   -6.6486 C.ar      1 <0>        -0.0867
     23 C16        -2.5184   -8.1206   -7.5422 C.ar      1 <0>        -0.1118
     24 C17        -3.0071   -9.3964   -7.3315 C.ar      1 <0>        -0.1149
     25 C18        -3.7952   -9.6610   -6.2270 C.ar      1 <0>        -0.1186
     26 C19        -4.0941   -8.6499   -5.3330 C.ar      1 <0>        -0.1188
     27 C20        -3.6018   -7.3751   -5.5414 C.ar      1 <0>        -0.1166
     28 C21         0.3334   -3.9153   -7.6484 C.3       1 <0>         0.0933
     29 C22         1.8054   -4.2909   -7.4667 C.3       1 <0>         0.0631
     30 O1          1.9192   -5.7058   -7.3025 O.3       1 <0>        -0.5725
     31 Cl1         1.0031    0.5991   -6.3817 Cl        1 <0>        -0.0287
     32 H1          1.9580   -1.4767   -0.1478 H         1 <0>         0.0885
     33 H2          0.5717   -2.4383    0.4195 H         1 <0>         0.0624
     34 H3          0.7129   -2.0104   -1.3025 H         1 <0>         0.0713
     35 H4          0.3404   -0.0045    0.9669 H         1 <0>         0.1050
     36 H5          0.3775    0.3634   -0.7743 H         1 <0>         0.1236
     37 H6         -5.0088   -1.6717    2.0352 H         1 <0>         0.4454
     38 H7         -3.5910   -1.4901    2.9181 H         1 <0>         0.4305
     39 H8         -3.6190   -0.7302   -3.4140 H         1 <0>         0.4321
     40 H9         -5.0369   -1.1171   -2.6001 H         1 <0>         0.4287
     41 H10        -0.9336    1.7068   -2.0856 H         1 <0>         0.1401
     42 H11         0.3034    2.2134   -4.1474 H         1 <0>         0.1518
     43 H12        -1.4416   -2.3463   -3.3762 H         1 <0>         0.1416
     44 H13        -0.2287   -6.3043   -6.6170 H         1 <0>         0.1076
     45 H14        -1.0307   -5.7511   -5.1273 H         1 <0>         0.0834
     46 H15        -2.9790   -4.9898   -6.4590 H         1 <0>         0.0734
     47 H16        -2.1770   -5.5431   -7.9486 H         1 <0>         0.0775
     48 H17        -1.9027   -7.9139   -8.4050 H         1 <0>         0.1235
     49 H18        -2.7736  -10.1863   -8.0300 H         1 <0>         0.1249
     50 H19        -4.1777  -10.6576   -6.0628 H         1 <0>         0.1236
     51 H20        -4.7101   -8.8566   -4.4703 H         1 <0>         0.1218
     52 H21        -3.8323   -6.5861   -4.8409 H         1 <0>         0.1174
     53 H22        -0.0870   -4.4842   -8.4777 H         1 <0>         0.0912
     54 H23         0.2541   -2.8493   -7.8620 H         1 <0>         0.1065
     55 H24         2.3708   -3.9804   -8.3454 H         1 <0>         0.0609
     56 H25         2.2019   -3.7896   -6.5837 H         1 <0>         0.0472
     57 H26         2.8271   -6.0161   -7.1819 H         1 <0>         0.3841
     58 H27        -1.6224   -0.9678    1.8299 H         1 <0>         0.4419
@<TRIPOS>BOND
     1    1    2 1
     2    1   32 1
     3    1   33 1
     4    1   34 1
     5    2    3 1
     6    2   35 1
     7    2   36 1
     8    3    8 ar
     9    3    4 ar
    10    4    5 ar
    11    4   11 1
    12    5    6 ar
    13    5   10 1
    14    6    7 ar
    15    7    8 ar
    16    7    9 1
    17    8   58 1
    18    9   37 1
    19    9   38 1
    20   10   39 1
    21   10   40 1
    22   11   16 ar
    23   11   12 ar
    24   12   13 ar
    25   12   41 1
    26   13   14 ar
    27   13   42 1
    28   14   15 ar
    29   14   31 1
    30   15   16 ar
    31   15   17 1
    32   16   43 1
    33   17   18 2
    34   18   19 1
    35   19   20 1
    36   19   28 1
    37   20   21 1
    38   20   44 1
    39   20   45 1
    40   21   22 1
    41   21   46 1
    42   21   47 1
    43   22   27 ar
    44   22   23 ar
    45   23   24 ar
    46   23   48 1
    47   24   25 ar
    48   24   49 1
    49   25   26 ar
    50   25   50 1
    51   26   27 ar
    52   26   51 1
    53   27   52 1
    54   28   29 1
    55   28   53 1
    56   28   54 1
    57   29   30 1
    58   29   55 1
    59   29   56 1
    60   30   57 1
@<TRIPOS>MOLECULE
CHEMBL82853__3
   57    59     0     0     0
SMALL
USER_CHARGES

@<TRIPOS>ATOM
      1 C1         -0.0187    1.5258    0.0104 C.3       1 <0>        -0.1414
      2 C2          0.0021   -0.0041    0.0020 C.3       1 <0>        -0.0811
      3 C3          0.7074   -0.4901   -1.2379 C.ar      1 <0>         0.2692
      4 C4         -0.0072   -0.7230   -2.4108 C.ar      1 <0>        -0.2857
      5 C5          0.6976   -1.1758   -3.5414 C.ar      1 <0>         0.4987
      6 N1          2.0092   -1.3625   -3.4473 N.ar      1 <0>        -0.6302
      7 C6          2.6467   -1.1276   -2.3102 C.ar      1 <0>         0.6108
      8 N2          2.0145   -0.6958   -1.2283 N.ar      1 <0>        -0.6024
      9 N3          4.0134   -1.3339   -2.2518 N.pl3     1 <0>        -0.8190
     10 N4          0.0355   -1.4228   -4.7308 N.pl3     1 <0>        -0.8300
     11 C7         -1.4723   -0.5002   -2.4663 C.ar      1 <0>         0.0013
     12 C8         -2.3276   -1.2823   -1.6899 C.ar      1 <0>        -0.0961
     13 C9         -3.6921   -1.0768   -1.7391 C.ar      1 <0>        -0.0976
     14 C10        -4.2195   -0.0958   -2.5572 C.ar      1 <0>        -0.0065
     15 C11        -3.3731    0.6937   -3.3392 C.ar      1 <0>         0.1175
     16 C12        -1.9952    0.4930   -3.2884 C.ar      1 <0>        -0.1196
     17 N5         -3.8969    1.6675   -4.1519 N.2       1 <0>        -0.3313
     18 N6         -3.1137    2.3956   -4.8733 N.2       1 <0>         0.0508
     19 N7         -3.6485    3.3898   -5.7030 N.pl3     1 <0>        -0.4717
     20 C13        -2.7590    4.2167   -6.5224 C.3       1 <0>         0.1564
     21 C14        -2.6529    3.6158   -7.9254 C.3       1 <0>        -0.0985
     22 C15        -1.7379    4.4663   -8.7683 C.ar      1 <0>        -0.0823
     23 C16        -2.2536    5.5176   -9.5030 C.ar      1 <0>        -0.1136
     24 C17        -1.4144    6.2978  -10.2761 C.ar      1 <0>        -0.1179
     25 C18        -0.0593    6.0270  -10.3143 C.ar      1 <0>        -0.1220
     26 C19         0.4565    4.9763   -9.5789 C.ar      1 <0>        -0.1182
     27 C20        -0.3822    4.1988   -8.8024 C.ar      1 <0>        -0.1147
     28 C21        -5.0971    3.6026   -5.7512 C.3       1 <0>         0.0974
     29 C22        -5.4811    4.7200   -4.7791 C.3       1 <0>         0.0625
     30 O1         -4.9033    5.9515   -5.2168 O.3       1 <0>        -0.5719
     31 Cl1        -5.9363    0.1555   -2.6134 Cl        1 <0>        -0.0514
     32 H1          1.0039    1.9031    0.0027 H         1 <0>         0.0592
     33 H2         -0.5459    1.8868   -0.8726 H         1 <0>         0.0550
     34 H3         -0.5289    1.8773    0.9072 H         1 <0>         0.0654
     35 H4          0.5293   -0.3651    0.8851 H         1 <0>         0.0878
     36 H5         -1.0205   -0.3814    0.0098 H         1 <0>         0.0881
     37 H6          4.4907   -1.6462   -3.0364 H         1 <0>         0.4139
     38 H7          4.4943   -1.1663   -1.4263 H         1 <0>         0.4158
     39 H8         -0.9227   -1.2840   -4.7903 H         1 <0>         0.4122
     40 H9          0.5294   -1.7347   -5.5051 H         1 <0>         0.4077
     41 H10        -1.9215   -2.0508   -1.0489 H         1 <0>         0.1356
     42 H11        -4.3498   -1.6853   -1.1363 H         1 <0>         0.1427
     43 H12        -1.3360    1.1033   -3.8879 H         1 <0>         0.1371
     44 H13        -3.1619    5.2273   -6.5895 H         1 <0>         0.1023
     45 H14        -1.7700    4.2494   -6.0654 H         1 <0>         0.0825
     46 H15        -2.2500    2.6052   -7.8583 H         1 <0>         0.0751
     47 H16        -3.6419    3.5830   -8.3824 H         1 <0>         0.0750
     48 H17        -3.3123    5.7292   -9.4732 H         1 <0>         0.1221
     49 H18        -1.8174    7.1187  -10.8507 H         1 <0>         0.1223
     50 H19         0.5963    6.6362  -10.9189 H         1 <0>         0.1214
     51 H20         1.5151    4.7646   -9.6090 H         1 <0>         0.1218
     52 H21         0.0214    3.3802   -8.2249 H         1 <0>         0.1208
     53 H22        -5.3895    3.8846   -6.7626 H         1 <0>         0.0851
     54 H23        -5.6091    2.6829   -5.4680 H         1 <0>         0.1040
     55 H24        -6.5662    4.8183   -4.7488 H         1 <0>         0.0565
     56 H25        -5.1102    4.4784   -3.7830 H         1 <0>         0.0481
     57 H26        -5.1057    6.7056   -4.6463 H         1 <0>         0.3806
@<TRIPOS>BOND
     1    1    2 1
     2    1   32 1
     3    1   33 1
     4    1   34 1
     5    2    3 1
     6    2   35 1
     7    2   36 1
     8    3    8 ar
     9    3    4 ar
    10    4    5 ar
    11    4   11 1
    12    5    6 ar
    13    5   10 1
    14    6    7 ar
    15    7    8 ar
    16    7    9 1
    17    9   37 1
    18    9   38 1
    19   10   39 1
    20   10   40 1
    21   11   16 ar
    22   11   12 ar
    23   12   13 ar
    24   12   41 1
    25   13   14 ar
    26   13   42 1
    27   14   15 ar
    28   14   31 1
    29   15   16 ar
    30   15   17 1
    31   16   43 1
    32   17   18 2
    33   18   19 1
    34   19   20 1
    35   19   28 1
    36   20   21 1
    37   20   44 1
    38   20   45 1
    39   21   22 1
    40   21   46 1
    41   21   47 1
    42   22   27 ar
    43   22   23 ar
    44   23   24 ar
    45   23   48 1
    46   24   25 ar
    47   24   49 1
    48   25   26 ar
    49   25   50 1
    50   26   27 ar
    51   26   51 1
    52   27   52 1
    53   28   29 1
    54   28   53 1
    55   28   54 1
    56   29   30 1
    57   29   55 1
    58   29   56 1
    59   30   57 1
@<TRIPOS>MOLECULE
CHEMBL1165306
   60    63     0     0     0
SMALL
USER_CHARGES

@<TRIPOS>ATOM
      1 C1         -0.0173    1.4248    0.0099 C.3       1 <0>         0.0270
      2 O1          0.0021   -0.0041    0.0020 O.3       1 <0>        -0.3075
      3 C2          0.6267   -0.6192    1.0430 C.ar      1 <0>         0.0561
      4 C3          1.2020    0.1376    2.0506 C.ar      1 <0>        -0.1251
      5 C4          1.8367   -0.4855    3.1084 C.ar      1 <0>        -0.1905
      6 C5          1.8991   -1.8717    3.1635 C.ar      1 <0>         0.2112
      7 C6          1.3236   -2.6330    2.1553 C.ar      1 <0>        -0.2434
      8 C7          0.6825   -2.0084    1.0980 C.ar      1 <0>         0.1491
      9 O2          0.1132   -2.7521    0.1121 O.3       1 <0>        -0.2915
     10 C8          0.2088   -4.1727    0.2336 C.3       1 <0>         0.0986
     11 C9         -0.4736   -4.8245   -0.9413 C.ar      1 <0>        -0.0638
     12 C10        -1.8202   -5.1346   -0.8705 C.ar      1 <0>        -0.1043
     13 C11        -2.4511   -5.7312   -1.9423 C.ar      1 <0>        -0.0559
     14 C12        -1.7276   -6.0222   -3.1005 C.ar      1 <0>        -0.1134
     15 C13        -0.3690   -5.7066   -3.1652 C.ar      1 <0>        -0.0633
     16 C14         0.2480   -5.1050   -2.0881 C.ar      1 <0>        -0.1068
     17 C15        -2.3965   -6.6616   -4.2521 C.2       1 <0>         0.5049
     18 O3         -3.5785   -6.9353   -4.1928 O.2       1 <0>        -0.4984
     19 O4         -1.6956   -6.9410   -5.3681 O.3       1 <0>        -0.3492
     20 C16        -2.4062   -7.5594   -6.4427 C.3       1 <0>         0.0335
     21 N1          2.5424   -2.5011    4.2348 N.pl3     1 <0>        -0.7499
     22 C17         3.1502   -1.6977    5.2985 C.3       1 <0>         0.1623
     23 C18         3.7726   -2.6100    6.3239 C.ar      1 <0>        -0.1043
     24 C19         3.0108   -3.0528    7.4013 C.ar      1 <0>        -0.0035
     25 C20         3.5439   -3.8783    8.3463 C.ar      1 <0>        -0.1447
     26 C21         4.8791   -4.2890    8.2328 C.ar      1 <0>         0.2094
     27 C22         5.6522   -3.8376    7.1355 C.ar      1 <0>        -0.1943
     28 C23         5.0734   -2.9951    6.1804 C.ar      1 <0>        -0.0178
     29 C24         6.9998   -4.2663    7.0414 C.ar      1 <0>         0.5635
     30 N2          7.4713   -5.0687    7.9845 N.ar      1 <0>        -0.5964
     31 C25         6.7099   -5.4689    8.9989 C.ar      1 <0>         0.6938
     32 N3          5.4504   -5.1004    9.1351 N.ar      1 <0>        -0.5852
     33 N4          7.2616   -6.3070    9.9509 N.pl3     1 <0>        -0.7871
     34 N5          7.7994   -3.8593    5.9951 N.pl3     1 <0>        -0.7652
     35 H1          1.0053    1.8021    0.0021 H         1 <0>         0.0534
     36 H2         -0.5445    1.7859   -0.8732 H         1 <0>         0.1011
     37 H3         -0.5275    1.7763    0.9067 H         1 <0>         0.0537
     38 H4          1.1547    1.2158    2.0094 H         1 <0>         0.1371
     39 H5          2.2849    0.1062    3.8929 H         1 <0>         0.1249
     40 H6          1.3721   -3.7110    2.1973 H         1 <0>         0.1328
     41 H7          1.2585   -4.4659    0.2527 H         1 <0>         0.0740
     42 H8         -0.2743   -4.4917    1.1572 H         1 <0>         0.0744
     43 H9         -2.3785   -4.9092    0.0261 H         1 <0>         0.1361
     44 H10        -3.5022   -5.9731   -1.8856 H         1 <0>         0.1429
     45 H11         0.1965   -5.9294   -4.0580 H         1 <0>         0.1436
     46 H12         1.2978   -4.8563   -2.1384 H         1 <0>         0.1346
     47 H13        -2.8148   -8.5126   -6.1071 H         1 <0>         0.0632
     48 H14        -3.2194   -6.9080   -6.7630 H         1 <0>         0.0637
     49 H15        -1.7264   -7.7293   -7.2776 H         1 <0>         0.1063
     50 H16         2.5860   -3.4693    4.2733 H         1 <0>         0.3989
     51 H17         3.9183   -1.0522    4.8726 H         1 <0>         0.0780
     52 H18         2.3840   -1.0855    5.7743 H         1 <0>         0.0808
     53 H19         1.9817   -2.7373    7.4902 H         1 <0>         0.1579
     54 H20         2.9411   -4.2134    9.1774 H         1 <0>         0.1605
     55 H21         5.6533   -2.6489    5.3377 H         1 <0>         0.1511
     56 H22         8.1857   -6.5907    9.8703 H         1 <0>         0.4454
     57 H23         6.7244   -6.6111   10.6991 H         1 <0>         0.4313
     58 H24         7.4415   -3.2720    5.3111 H         1 <0>         0.4320
     59 H25         8.7201   -4.1602    5.9427 H         1 <0>         0.4334
     60 H26         4.9344   -5.4180    9.8925 H         1 <0>         0.4410
@<TRIPOS>BOND
     1    1    2 1
     2    1   35 1
     3    1   36 1
     4    1   37 1
     5    2    3 1
     6    3    8 ar
     7    3    4 ar
     8    4    5 ar
     9    4   38 1
    10    5    6 ar
    11    5   39 1
    12    6    7 ar
    13    6   21 1
    14    7    8 ar
    15    7   40 1
    16    8    9 1
    17    9   10 1
    18   10   11 1
    19   10   41 1
    20   10   42 1
    21   11   16 ar
    22   11   12 ar
    23   12   13 ar
    24   12   43 1
    25   13   14 ar
    26   13   44 1
    27   14   15 ar
    28   14   17 1
    29   15   16 ar
    30   15   45 1
    31   16   46 1
    32   17   18 2
    33   17   19 1
    34   19   20 1
    35   20   47 1
    36   20   48 1
    37   20   49 1
    38   21   22 1
    39   21   50 1
    40   22   23 1
    41   22   51 1
    42   22   52 1
    43   23   28 ar
    44   23   24 ar
    45   24   25 ar
    46   24   53 1
    47   25   26 ar
    48   25   54 1
    49   26   32 ar
    50   26   27 ar
    51   27   28 ar
    52   27   29 ar
    53   28   55 1
    54   29   30 ar
    55   29   34 1
    56   30   31 ar
    57   31   32 ar
    58   31   33 1
    59   32   60 1
    60   33   56 1
    61   33   57 1
    62   34   58 1
    63   34   59 1
@<TRIPOS>MOLECULE
CHEMBL77758
   61    65     0     0     0
SMALL
USER_CHARGES

@<TRIPOS>ATOM
      1 C1         -0.3836    1.8327   -0.2434 C.3       1 <0>        -0.1844
      2 C2         -0.1473    0.3454    0.0271 C.3       1 <0>         0.1572
      3 C3         -1.4683   -0.3854    0.0493 C.2       1 <0>         0.0170
      4 C4         -2.2376   -0.7375   -0.9947 C.2       1 <0>        -0.1664
      5 C5         -3.3686   -1.4004   -0.4855 C.2       1 <0>        -0.1297
      6 C6         -3.2476   -1.4290    0.8733 C.2       1 <0>         0.0703
      7 N1         -2.0799   -0.8031    1.2020 N.pl3     1 <0>        -0.4334
      8 C7         -1.5190   -0.5795    2.5399 C.3       1 <0>         0.1160
      9 C8         -0.4400    0.5049    2.4320 C.3       1 <0>         0.0354
     10 N2          0.4905    0.1741    1.3442 N.3       1 <0>        -0.5353
     11 C9          1.7198    0.9724    1.4418 C.3       1 <0>         0.0961
     12 C10         2.4699    0.5891    2.6914 C.ar      1 <0>        -0.2243
     13 C11         2.3839    1.3630    3.8323 C.ar      1 <0>         0.2052
     14 N3          3.0552    0.9987    4.9148 N.ar      1 <0>        -0.5725
     15 C12         3.8049   -0.0938    4.9157 C.ar      1 <0>         0.6644
     16 N4          3.9143   -0.8623    3.8426 N.ar      1 <0>        -0.5758
     17 C13         3.2631   -0.5597    2.7240 C.ar      1 <0>         0.5448
     18 N5          3.3748   -1.3686    1.6049 N.pl3     1 <0>        -0.7647
     19 N6          4.4912   -0.4402    6.0665 N.pl3     1 <0>        -0.7912
     20 C14        -4.2097   -2.0311    1.8210 C.ar      1 <0>        -0.0202
     21 C15        -3.7772   -2.9743    2.7543 C.ar      1 <0>        -0.1087
     22 C16        -4.6800   -3.5320    3.6360 C.ar      1 <0>        -0.1170
     23 C17        -6.0115   -3.1584    3.5962 C.ar      1 <0>        -0.1129
     24 C18        -6.4468   -2.2239    2.6734 C.ar      1 <0>        -0.1145
     25 C19        -5.5532   -1.6544    1.7899 C.ar      1 <0>        -0.0992
     26 C20        -4.5054   -1.9733   -1.2921 C.3       1 <0>        -0.0128
     27 C21        -4.2445   -3.4329   -1.5616 C.ar      1 <0>        -0.0707
     28 C22        -3.4533   -3.8076   -2.6314 C.ar      1 <0>        -0.1129
     29 C23        -3.2140   -5.1464   -2.8786 C.ar      1 <0>        -0.1198
     30 C24        -3.7655   -6.1106   -2.0557 C.ar      1 <0>        -0.1252
     31 C25        -4.5559   -5.7358   -0.9853 C.ar      1 <0>        -0.1191
     32 C26        -4.7917   -4.3968   -0.7356 C.ar      1 <0>        -0.1112
     33 H1          0.5703    2.3599   -0.2331 H         1 <0>         0.0649
     34 H2         -0.8554    1.9542   -1.2184 H         1 <0>         0.0797
     35 H3         -1.0341    2.2435    0.5287 H         1 <0>         0.0602
     36 H4          0.4930   -0.0729   -0.7495 H         1 <0>         0.1098
     37 H5         -2.0256   -0.5464   -2.0363 H         1 <0>         0.1383
     38 H6         -2.3059   -0.2492    3.2180 H         1 <0>         0.0913
     39 H7         -1.0761   -1.5033    2.9120 H         1 <0>         0.0821
     40 H8         -0.9112    1.4659    2.2256 H         1 <0>         0.0625
     41 H9          0.1082    0.5656    3.3721 H         1 <0>         0.0830
     42 H10         2.3459    0.7835    0.5698 H         1 <0>         0.1054
     43 H11         1.4632    2.0310    1.4824 H         1 <0>         0.0770
     44 H12         1.7761    2.2558    3.8416 H         1 <0>         0.2116
     45 H13         2.9000   -1.1387    0.7909 H         1 <0>         0.4345
     46 H14         3.9277   -2.1650    1.6354 H         1 <0>         0.4278
     47 H15         4.4199    0.1143    6.8592 H         1 <0>         0.4307
     48 H16         5.0435   -1.2375    6.0804 H         1 <0>         0.4453
     49 H17        -2.7382   -3.2673    2.7860 H         1 <0>         0.1139
     50 H18        -4.3466   -4.2620    4.3587 H         1 <0>         0.1233
     51 H19        -6.7143   -3.5984    4.2881 H         1 <0>         0.1251
     52 H20        -7.4875   -1.9365    2.6474 H         1 <0>         0.1279
     53 H21        -5.8934   -0.9219    1.0728 H         1 <0>         0.1264
     54 H22        -5.4360   -1.8674   -0.7346 H         1 <0>         0.0765
     55 H23        -4.5856   -1.4379   -2.2381 H         1 <0>         0.0807
     56 H24        -3.0225   -3.0543   -3.2743 H         1 <0>         0.1189
     57 H25        -2.5965   -5.4392   -3.7148 H         1 <0>         0.1198
     58 H26        -3.5791   -7.1566   -2.2492 H         1 <0>         0.1193
     59 H27        -4.9871   -6.4891   -0.3426 H         1 <0>         0.1186
     60 H28        -5.4062   -4.1039    0.1029 H         1 <0>         0.1164
     61 H29         2.9973    1.5396    5.7179 H         1 <0>         0.4445
@<TRIPOS>BOND
     1    1    2 1
     2    1   33 1
     3    1   34 1
     4    1   35 1
     5    2   10 1
     6    2    3 1
     7    2   36 1
     8    3    7 1
     9    3    4 2
    10    4    5 1
    11    4   37 1
    12    5    6 2
    13    5   26 1
    14    6    7 1
    15    6   20 1
    16    7    8 1
    17    8    9 1
    18    8   38 1
    19    8   39 1
    20    9   10 1
    21    9   40 1
    22    9   41 1
    23   10   11 1
    24   11   12 1
    25   11   42 1
    26   11   43 1
    27   12   17 ar
    28   12   13 ar
    29   13   14 ar
    30   13   44 1
    31   14   15 ar
    32   14   61 1
    33   15   16 ar
    34   15   19 1
    35   16   17 ar
    36   17   18 1
    37   18   45 1
    38   18   46 1
    39   19   47 1
    40   19   48 1
    41   20   25 ar
    42   20   21 ar
    43   21   22 ar
    44   21   49 1
    45   22   23 ar
    46   22   50 1
    47   23   24 ar
    48   23   51 1
    49   24   25 ar
    50   24   52 1
    51   25   53 1
    52   26   27 1
    53   26   54 1
    54   26   55 1
    55   27   32 ar
    56   27   28 ar
    57   28   29 ar
    58   28   56 1
    59   29   30 ar
    60   29   57 1
    61   30   31 ar
    62   30   58 1
    63   31   32 ar
    64   31   59 1
    65   32   60 1
@<TRIPOS>MOLECULE
CHEMBL77758__1
   60    64     0     0     0
SMALL
USER_CHARGES

@<TRIPOS>ATOM
      1 C1         -0.3836    1.8327   -0.2434 C.3       1 <0>        -0.1809
      2 C2         -0.1473    0.3454    0.0271 C.3       1 <0>         0.1509
      3 C3         -1.4683   -0.3854    0.0493 C.2       1 <0>         0.0327
      4 C4         -2.2376   -0.7375   -0.9947 C.2       1 <0>        -0.1779
      5 C5         -3.3686   -1.4004   -0.4855 C.2       1 <0>        -0.1353
      6 C6         -3.2476   -1.4290    0.8733 C.2       1 <0>         0.0610
      7 N1         -2.0799   -0.8031    1.2020 N.pl3     1 <0>        -0.4279
      8 C7         -1.5190   -0.5795    2.5399 C.3       1 <0>         0.1151
      9 C8         -0.4400    0.5049    2.4320 C.3       1 <0>         0.0394
     10 N2          0.4905    0.1741    1.3442 N.3       1 <0>        -0.5307
     11 C9          1.7198    0.9724    1.4418 C.3       1 <0>         0.1193
     12 C10         2.4699    0.5891    2.6914 C.ar      1 <0>        -0.3132
     13 C11         2.3839    1.3630    3.8323 C.ar      1 <0>         0.2209
     14 N3          3.0552    0.9987    4.9148 N.ar      1 <0>        -0.6078
     15 C12         3.8046   -0.0940    4.9158 C.ar      1 <0>         0.6059
     16 N4          3.9139   -0.8626    3.8428 N.ar      1 <0>        -0.6312
     17 C13         3.2631   -0.5597    2.7240 C.ar      1 <0>         0.5020
     18 N5          3.3748   -1.3686    1.6049 N.pl3     1 <0>        -0.8259
     19 N6          4.4905   -0.4407    6.0668 N.pl3     1 <0>        -0.8211
     20 C14        -4.2097   -2.0311    1.8210 C.ar      1 <0>        -0.0132
     21 C15        -3.7772   -2.9743    2.7543 C.ar      1 <0>        -0.1073
     22 C16        -4.6800   -3.5320    3.6360 C.ar      1 <0>        -0.1165
     23 C17        -6.0115   -3.1584    3.5962 C.ar      1 <0>        -0.1172
     24 C18        -6.4468   -2.2239    2.6734 C.ar      1 <0>        -0.1172
     25 C19        -5.5532   -1.6544    1.7899 C.ar      1 <0>        -0.1012
     26 C20        -4.5054   -1.9733   -1.2921 C.3       1 <0>        -0.0099
     27 C21        -4.2445   -3.4329   -1.5616 C.ar      1 <0>        -0.0674
     28 C22        -3.4533   -3.8076   -2.6314 C.ar      1 <0>        -0.1123
     29 C23        -3.2140   -5.1464   -2.8786 C.ar      1 <0>        -0.1204
     30 C24        -3.7655   -6.1106   -2.0557 C.ar      1 <0>        -0.1276
     31 C25        -4.5559   -5.7358   -0.9853 C.ar      1 <0>        -0.1199
     32 C26        -4.7917   -4.3968   -0.7356 C.ar      1 <0>        -0.1113
     33 H1          0.5703    2.3599   -0.2331 H         1 <0>         0.0652
     34 H2         -0.8554    1.9542   -1.2184 H         1 <0>         0.0710
     35 H3         -1.0341    2.2435    0.5287 H         1 <0>         0.0576
     36 H4          0.4930   -0.0729   -0.7495 H         1 <0>         0.1037
     37 H5         -2.0256   -0.5464   -2.0363 H         1 <0>         0.1353
     38 H6         -2.3059   -0.2492    3.2180 H         1 <0>         0.0871
     39 H7         -1.0761   -1.5033    2.9120 H         1 <0>         0.0827
     40 H8         -0.9112    1.4659    2.2256 H         1 <0>         0.0519
     41 H9          0.1082    0.5656    3.3721 H         1 <0>         0.0948
     42 H10         2.3459    0.7835    0.5698 H         1 <0>         0.0816
     43 H11         1.4632    2.0310    1.4824 H         1 <0>         0.0535
     44 H12         1.7761    2.2558    3.8416 H         1 <0>         0.1596
     45 H13         2.9000   -1.1387    0.7909 H         1 <0>         0.4144
     46 H14         3.9277   -2.1650    1.6354 H         1 <0>         0.4051
     47 H15         4.4192    0.1139    6.8594 H         1 <0>         0.4152
     48 H16         5.0425   -1.2381    6.0808 H         1 <0>         0.4133
     49 H17        -2.7382   -3.2673    2.7860 H         1 <0>         0.1163
     50 H18        -4.3466   -4.2620    4.3587 H         1 <0>         0.1226
     51 H19        -6.7143   -3.5984    4.2881 H         1 <0>         0.1226
     52 H20        -7.4875   -1.9365    2.6474 H         1 <0>         0.1251
     53 H21        -5.8934   -0.9219    1.0728 H         1 <0>         0.1252
     54 H22        -5.4360   -1.8674   -0.7346 H         1 <0>         0.0746
     55 H23        -4.5856   -1.4379   -2.2381 H         1 <0>         0.0783
     56 H24        -3.0225   -3.0543   -3.2743 H         1 <0>         0.1191
     57 H25        -2.5965   -5.4392   -3.7148 H         1 <0>         0.1186
     58 H26        -3.5791   -7.1566   -2.2492 H         1 <0>         0.1176
     59 H27        -4.9871   -6.4891   -0.3426 H         1 <0>         0.1173
     60 H28        -5.4062   -4.1039    0.1029 H         1 <0>         0.1166
@<TRIPOS>BOND
     1    1    2 1
     2    1   33 1
     3    1   34 1
     4    1   35 1
     5    2   10 1
     6    2    3 1
     7    2   36 1
     8    3    7 1
     9    3    4 2
    10    4    5 1
    11    4   37 1
    12    5    6 2
    13    5   26 1
    14    6    7 1
    15    6   20 1
    16    7    8 1
    17    8    9 1
    18    8   38 1
    19    8   39 1
    20    9   10 1
    21    9   40 1
    22    9   41 1
    23   10   11 1
    24   11   12 1
    25   11   42 1
    26   11   43 1
    27   12   17 ar
    28   12   13 ar
    29   13   14 ar
    30   13   44 1
    31   14   15 ar
    32   15   16 ar
    33   15   19 1
    34   16   17 ar
    35   17   18 1
    36   18   45 1
    37   18   46 1
    38   19   47 1
    39   19   48 1
    40   20   25 ar
    41   20   21 ar
    42   21   22 ar
    43   21   49 1
    44   22   23 ar
    45   22   50 1
    46   23   24 ar
    47   23   51 1
    48   24   25 ar
    49   24   52 1
    50   25   53 1
    51   26   27 1
    52   26   54 1
    53   26   55 1
    54   27   32 ar
    55   27   28 ar
    56   28   29 ar
    57   28   56 1
    58   29   30 ar
    59   29   57 1
    60   30   31 ar
    61   30   58 1
    62   31   32 ar
    63   31   59 1
    64   32   60 1
@<TRIPOS>MOLECULE
CHEMBL77758__2
   61    65     0     0     0
SMALL
USER_CHARGES

@<TRIPOS>ATOM
      1 C1         -0.2132    1.2933    0.1509 C.3       1 <0>        -0.1462
      2 C2         -0.2952   -0.2111   -0.1157 C.3       1 <0>         0.1580
      3 C3          0.6083   -0.5748   -1.2693 C.2       1 <0>         0.0152
      4 C4          0.7468    0.0608   -2.4452 C.2       1 <0>        -0.1646
      5 C5          1.7032   -0.6427   -3.1992 C.2       1 <0>        -0.1300
      6 C6          2.1203   -1.7003   -2.4446 C.2       1 <0>         0.0707
      7 N1          1.4456   -1.6593   -1.2587 N.pl3     1 <0>        -0.4343
      8 C7          1.5496   -2.5876   -0.1264 C.3       1 <0>         0.1156
      9 C8          0.3261   -2.3823    0.7753 C.3       1 <0>         0.0400
     10 N2          0.1616   -0.9530    1.0725 N.3       1 <0>        -0.5383
     11 C9         -0.7548   -0.7523    2.2030 C.3       1 <0>         0.0944
     12 C10        -0.1369   -1.3158    3.4567 C.ar      1 <0>        -0.2243
     13 C11        -0.5069   -2.5599    3.9290 C.ar      1 <0>         0.2058
     14 N3          0.0553   -3.0274    5.0338 N.ar      1 <0>        -0.5724
     15 C12         0.9636   -2.3186    5.6881 C.ar      1 <0>         0.6644
     16 N4          1.3454   -1.1218    5.2687 N.ar      1 <0>        -0.5754
     17 C13         0.8271   -0.5944    4.1641 C.ar      1 <0>         0.5451
     18 N5          1.2326    0.6552    3.7246 N.pl3     1 <0>        -0.7655
     19 N6          1.5272   -2.8418    6.8388 N.pl3     1 <0>        -0.7911
     20 C14         3.1249   -2.7104   -2.8407 C.ar      1 <0>        -0.0204
     21 C15         4.2243   -2.9649   -2.0195 C.ar      1 <0>        -0.1086
     22 C16         5.1577   -3.9091   -2.3947 C.ar      1 <0>        -0.1170
     23 C17         5.0058   -4.6026   -3.5822 C.ar      1 <0>        -0.1128
     24 C18         3.9182   -4.3550   -4.4007 C.ar      1 <0>        -0.1145
     25 C19         2.9746   -3.4176   -4.0344 C.ar      1 <0>        -0.0991
     26 C20         2.1792   -0.2932   -4.5856 C.3       1 <0>        -0.0128
     27 C21         3.4288    0.5438   -4.4916 C.ar      1 <0>        -0.0705
     28 C22         3.3330    1.9106   -4.3085 C.ar      1 <0>        -0.1128
     29 C23         4.4792    2.6785   -4.2222 C.ar      1 <0>        -0.1198
     30 C24         5.7213    2.0794   -4.3186 C.ar      1 <0>        -0.1252
     31 C25         5.8171    0.7124   -4.5008 C.ar      1 <0>        -0.1190
     32 C26         4.6709   -0.0559   -4.5828 C.ar      1 <0>        -0.1112
     33 H1          0.8182    1.5673    0.3728 H         1 <0>         0.0697
     34 H2         -0.5521    1.8375   -0.7306 H         1 <0>         0.0794
     35 H3         -0.8473    1.5469    1.0005 H         1 <0>         0.0598
     36 H4         -1.3231   -0.4880   -0.3502 H         1 <0>         0.0690
     37 H5          0.2191    0.9506   -2.7552 H         1 <0>         0.1385
     38 H6          1.5683   -3.6139   -0.4929 H         1 <0>         0.0919
     39 H7          2.4599   -2.3807    0.4362 H         1 <0>         0.0824
     40 H8         -0.5647   -2.7514    0.2671 H         1 <0>         0.0590
     41 H9          0.4654   -2.9325    1.7059 H         1 <0>         0.0840
     42 H10        -0.9394    0.3136    2.3363 H         1 <0>         0.1076
     43 H11        -1.6971   -1.2619    2.0017 H         1 <0>         0.0744
     44 H12        -1.2469   -3.1453    3.4034 H         1 <0>         0.2120
     45 H13         0.8465    1.0352    2.9200 H         1 <0>         0.4337
     46 H14         1.9028    1.1501    4.2214 H         1 <0>         0.4278
     47 H15         1.2561   -3.7172    7.1568 H         1 <0>         0.4307
     48 H16         2.1933   -2.3332    7.3271 H         1 <0>         0.4453
     49 H17         4.3443   -2.4237   -1.0927 H         1 <0>         0.1138
     50 H18         6.0089   -4.1070   -1.7602 H         1 <0>         0.1233
     51 H19         5.7397   -5.3402   -3.8717 H         1 <0>         0.1252
     52 H20         3.8054   -4.8998   -5.3264 H         1 <0>         0.1279
     53 H21         2.1238   -3.2282   -4.6722 H         1 <0>         0.1265
     54 H22         2.3954   -1.2083   -5.1370 H         1 <0>         0.0766
     55 H23         1.4033    0.2692   -5.1051 H         1 <0>         0.0808
     56 H24         2.3626    2.3787   -4.2332 H         1 <0>         0.1188
     57 H25         4.4044    3.7464   -4.0799 H         1 <0>         0.1198
     58 H26         6.6168    2.6794   -4.2519 H         1 <0>         0.1193
     59 H27         6.7875    0.2445   -4.5765 H         1 <0>         0.1186
     60 H28         4.7458   -1.1244   -4.7214 H         1 <0>         0.1164
     61 H29        -0.2020   -3.9006    5.3687 H         1 <0>         0.4447
@<TRIPOS>BOND
     1    1    2 1
     2    1   33 1
     3    1   34 1
     4    1   35 1
     5    2   10 1
     6    2    3 1
     7    2   36 1
     8    3    7 1
     9    3    4 2
    10    4    5 1
    11    4   37 1
    12    5    6 2
    13    5   26 1
    14    6    7 1
    15    6   20 1
    16    7    8 1
    17    8    9 1
    18    8   38 1
    19    8   39 1
    20    9   10 1
    21    9   40 1
    22    9   41 1
    23   10   11 1
    24   11   12 1
    25   11   42 1
    26   11   43 1
    27   12   17 ar
    28   12   13 ar
    29   13   14 ar
    30   13   44 1
    31   14   15 ar
    32   14   61 1
    33   15   16 ar
    34   15   19 1
    35   16   17 ar
    36   17   18 1
    37   18   45 1
    38   18   46 1
    39   19   47 1
    40   19   48 1
    41   20   25 ar
    42   20   21 ar
    43   21   22 ar
    44   21   49 1
    45   22   23 ar
    46   22   50 1
    47   23   24 ar
    48   23   51 1
    49   24   25 ar
    50   24   52 1
    51   25   53 1
    52   26   27 1
    53   26   54 1
    54   26   55 1
    55   27   32 ar
    56   27   28 ar
    57   28   29 ar
    58   28   56 1
    59   29   30 ar
    60   29   57 1
    61   30   31 ar
    62   30   58 1
    63   31   32 ar
    64   31   59 1
    65   32   60 1
@<TRIPOS>MOLECULE
CHEMBL77758__3
   60    64     0     0     0
SMALL
USER_CHARGES

@<TRIPOS>ATOM
      1 C1         -0.2132    1.2933    0.1509 C.3       1 <0>        -0.1404
      2 C2         -0.2952   -0.2111   -0.1157 C.3       1 <0>         0.1514
      3 C3          0.6083   -0.5748   -1.2693 C.2       1 <0>         0.0308
      4 C4          0.7468    0.0608   -2.4452 C.2       1 <0>        -0.1761
      5 C5          1.7032   -0.6427   -3.1992 C.2       1 <0>        -0.1357
      6 C6          2.1203   -1.7003   -2.4446 C.2       1 <0>         0.0613
      7 N1          1.4456   -1.6593   -1.2587 N.pl3     1 <0>        -0.4288
      8 C7          1.5496   -2.5876   -0.1264 C.3       1 <0>         0.1149
      9 C8          0.3261   -2.3823    0.7753 C.3       1 <0>         0.0434
     10 N2          0.1616   -0.9530    1.0725 N.3       1 <0>        -0.5331
     11 C9         -0.7548   -0.7523    2.2030 C.3       1 <0>         0.1171
     12 C10        -0.1369   -1.3158    3.4567 C.ar      1 <0>        -0.3129
     13 C11        -0.5069   -2.5599    3.9290 C.ar      1 <0>         0.2210
     14 N3          0.0553   -3.0274    5.0338 N.ar      1 <0>        -0.6076
     15 C12         0.9640   -2.3188    5.6879 C.ar      1 <0>         0.6059
     16 N4          1.3458   -1.1220    5.2685 N.ar      1 <0>        -0.6309
     17 C13         0.8271   -0.5944    4.1641 C.ar      1 <0>         0.5023
     18 N5          1.2326    0.6552    3.7246 N.pl3     1 <0>        -0.8265
     19 N6          1.5279   -2.8422    6.8383 N.pl3     1 <0>        -0.8210
     20 C14         3.1249   -2.7104   -2.8407 C.ar      1 <0>        -0.0133
     21 C15         4.2243   -2.9649   -2.0195 C.ar      1 <0>        -0.1073
     22 C16         5.1577   -3.9091   -2.3947 C.ar      1 <0>        -0.1165
     23 C17         5.0058   -4.6026   -3.5822 C.ar      1 <0>        -0.1171
     24 C18         3.9182   -4.3550   -4.4007 C.ar      1 <0>        -0.1172
     25 C19         2.9746   -3.4176   -4.0344 C.ar      1 <0>        -0.1011
     26 C20         2.1792   -0.2932   -4.5856 C.3       1 <0>        -0.0099
     27 C21         3.4288    0.5438   -4.4916 C.ar      1 <0>        -0.0673
     28 C22         3.3330    1.9106   -4.3085 C.ar      1 <0>        -0.1122
     29 C23         4.4792    2.6785   -4.2222 C.ar      1 <0>        -0.1204
     30 C24         5.7213    2.0794   -4.3186 C.ar      1 <0>        -0.1276
     31 C25         5.8171    0.7124   -4.5008 C.ar      1 <0>        -0.1199
     32 C26         4.6709   -0.0559   -4.5828 C.ar      1 <0>        -0.1113
     33 H1          0.8182    1.5673    0.3728 H         1 <0>         0.0673
     34 H2         -0.5521    1.8375   -0.7306 H         1 <0>         0.0700
     35 H3         -0.8473    1.5469    1.0005 H         1 <0>         0.0606
     36 H4         -1.3231   -0.4880   -0.3502 H         1 <0>         0.0608
     37 H5          0.2191    0.9506   -2.7552 H         1 <0>         0.1355
     38 H6          1.5683   -3.6139   -0.4929 H         1 <0>         0.0877
     39 H7          2.4599   -2.3807    0.4362 H         1 <0>         0.0831
     40 H8         -0.5647   -2.7514    0.2671 H         1 <0>         0.0481
     41 H9          0.4654   -2.9325    1.7059 H         1 <0>         0.0960
     42 H10        -0.9394    0.3136    2.3363 H         1 <0>         0.0850
     43 H11        -1.6971   -1.2619    2.0017 H         1 <0>         0.0500
     44 H12        -1.2469   -3.1453    3.4034 H         1 <0>         0.1599
     45 H13         0.8465    1.0352    2.9200 H         1 <0>         0.4140
     46 H14         1.9028    1.1501    4.2214 H         1 <0>         0.4051
     47 H15         1.2568   -3.7175    7.1564 H         1 <0>         0.4152
     48 H16         2.1942   -2.3337    7.3265 H         1 <0>         0.4133
     49 H17         4.3443   -2.4237   -1.0927 H         1 <0>         0.1162
     50 H18         6.0089   -4.1070   -1.7602 H         1 <0>         0.1226
     51 H19         5.7397   -5.3402   -3.8717 H         1 <0>         0.1227
     52 H20         3.8054   -4.8998   -5.3264 H         1 <0>         0.1252
     53 H21         2.1238   -3.2282   -4.6722 H         1 <0>         0.1253
     54 H22         2.3954   -1.2083   -5.1370 H         1 <0>         0.0747
     55 H23         1.4033    0.2692   -5.1051 H         1 <0>         0.0784
     56 H24         2.3626    2.3787   -4.2332 H         1 <0>         0.1190
     57 H25         4.4044    3.7464   -4.0799 H         1 <0>         0.1186
     58 H26         6.6168    2.6794   -4.2519 H         1 <0>         0.1176
     59 H27         6.7875    0.2445   -4.5765 H         1 <0>         0.1173
     60 H28         4.7458   -1.1244   -4.7214 H         1 <0>         0.1166
@<TRIPOS>BOND
     1    1    2 1
     2    1   33 1
     3    1   34 1
     4    1   35 1
     5    2   10 1
     6    2    3 1
     7    2   36 1
     8    3    7 1
     9    3    4 2
    10    4    5 1
    11    4   37 1
    12    5    6 2
    13    5   26 1
    14    6    7 1
    15    6   20 1
    16    7    8 1
    17    8    9 1
    18    8   38 1
    19    8   39 1
    20    9   10 1
    21    9   40 1
    22    9   41 1
    23   10   11 1
    24   11   12 1
    25   11   42 1
    26   11   43 1
    27   12   17 ar
    28   12   13 ar
    29   13   14 ar
    30   13   44 1
    31   14   15 ar
    32   15   16 ar
    33   15   19 1
    34   16   17 ar
    35   17   18 1
    36   18   45 1
    37   18   46 1
    38   19   47 1
    39   19   48 1
    40   20   25 ar
    41   20   21 ar
    42   21   22 ar
    43   21   49 1
    44   22   23 ar
    45   22   50 1
    46   23   24 ar
    47   23   51 1
    48   24   25 ar
    49   24   52 1
    50   25   53 1
    51   26   27 1
    52   26   54 1
    53   26   55 1
    54   27   32 ar
    55   27   28 ar
    56   28   29 ar
    57   28   56 1
    58   29   30 ar
    59   29   57 1
    60   30   31 ar
    61   30   58 1
    62   31   32 ar
    63   31   59 1
    64   32   60 1
@<TRIPOS>MOLECULE
CHEMBL292143
   40    43     0     0     0
SMALL
USER_CHARGES

@<TRIPOS>ATOM
      1 C1         -0.0164    1.3569    0.0095 C.ar      1 <0>        -0.1101
      2 C2          1.1683    2.0910    0.0021 C.ar      1 <0>        -0.1055
      3 C3          2.3781    1.4678   -0.0128 C.ar      1 <0>        -0.1081
      4 C4          2.4371    0.0630   -0.0208 C.ar      1 <0>        -0.0360
      5 C5          3.6677   -0.6129   -0.0357 C.ar      1 <0>        -0.0756
      6 C6          3.6850   -1.9910   -0.0428 C.ar      1 <0>        -0.0927
      7 C7          2.4890   -2.7204   -0.0359 C.ar      1 <0>        -0.1336
      8 C8          1.2861   -2.0887   -0.0216 C.ar      1 <0>        -0.0772
      9 C9          1.2320   -0.6835   -0.0134 C.ar      1 <0>        -0.0541
     10 C10         0.0021   -0.0041    0.0020 C.ar      1 <0>        -0.1046
     11 S1          5.2267   -2.8439   -0.0614 S.3       1 <0>        -0.0857
     12 C11         4.7586   -4.5965   -0.0660 C.3       1 <0>        -0.0786
     13 C12         6.0017   -5.4483   -0.0818 C.ar      1 <0>         0.1660
     14 C13         6.5539   -5.8213   -1.3053 C.ar      1 <0>        -0.0647
     15 C14         7.6814   -6.5934   -1.3392 C.ar      1 <0>        -0.0885
     16 C15         8.2494   -6.9876   -0.1158 C.ar      1 <0>         0.1490
     17 C16         7.6339   -6.5711    1.0887 C.ar      1 <0>         0.0270
     18 N1          6.5401   -5.8159    1.0574 N.ar      1 <0>        -0.4036
     19 C17         8.2482   -6.9972    2.3471 C.ar      1 <0>         0.5744
     20 N2          9.3404   -7.7449    2.2783 N.ar      1 <0>        -0.5876
     21 C18         9.8646   -8.0990    1.1091 C.ar      1 <0>         0.6975
     22 N3          9.3529   -7.7431   -0.0520 N.ar      1 <0>        -0.5814
     23 N4         11.0062   -8.8802    1.1114 N.pl3     1 <0>        -0.7837
     24 N5          7.7092   -6.6328    3.5627 N.pl3     1 <0>        -0.7368
     25 H1         -0.9634    1.8758    0.0259 H         1 <0>         0.1282
     26 H2          1.1257    3.1701    0.0080 H         1 <0>         0.1286
     27 H3          3.2881    2.0493   -0.0187 H         1 <0>         0.1306
     28 H4          4.5937   -0.0571   -0.0417 H         1 <0>         0.1338
     29 H5          2.5235   -3.7999   -0.0425 H         1 <0>         0.1225
     30 H6          0.3728   -2.6650   -0.0168 H         1 <0>         0.1338
     31 H7         -0.9243   -0.5592    0.0082 H         1 <0>         0.1307
     32 H8          4.1767   -4.8195    0.8283 H         1 <0>         0.1196
     33 H9          4.1603   -4.8104   -0.9516 H         1 <0>         0.1205
     34 H10         6.0910   -5.5007   -2.2269 H         1 <0>         0.1740
     35 H11         8.1226   -6.8919   -2.2787 H         1 <0>         0.1749
     36 H12        11.4037   -9.1557    1.9522 H         1 <0>         0.4464
     37 H13         6.9094   -6.0848    3.5939 H         1 <0>         0.4431
     38 H14         8.1298   -6.9243    4.3867 H         1 <0>         0.4346
     39 H15        11.4091   -9.1526    0.2722 H         1 <0>         0.4321
     40 H16         9.7816   -8.0332   -0.8723 H         1 <0>         0.4406
@<TRIPOS>BOND
     1    1   10 ar
     2    1    2 ar
     3    1   25 1
     4    2    3 ar
     5    2   26 1
     6    3    4 ar
     7    3   27 1
     8    4    9 ar
     9    4    5 ar
    10    5    6 ar
    11    5   28 1
    12    6    7 ar
    13    6   11 1
    14    7    8 ar
    15    7   29 1
    16    8    9 ar
    17    8   30 1
    18    9   10 ar
    19   10   31 1
    20   11   12 1
    21   12   13 1
    22   12   32 1
    23   12   33 1
    24   13   18 ar
    25   13   14 ar
    26   14   15 ar
    27   14   34 1
    28   15   16 ar
    29   15   35 1
    30   16   22 ar
    31   16   17 ar
    32   17   18 ar
    33   17   19 ar
    34   19   20 ar
    35   19   24 1
    36   20   21 ar
    37   21   22 ar
    38   21   23 1
    39   22   40 1
    40   23   36 1
    41   23   39 1
    42   24   37 1
    43   24   38 1
@<TRIPOS>MOLECULE
CHEMBL55656
   40    43     0     0     0
SMALL
USER_CHARGES

@<TRIPOS>ATOM
      1 C1         -0.0164    1.3569    0.0095 C.ar      1 <0>        -0.1103
      2 C2          1.1684    2.0901    0.0021 C.ar      1 <0>        -0.1038
      3 C3          2.3785    1.4657   -0.0133 C.ar      1 <0>        -0.1111
      4 C4          2.4368    0.0637   -0.0213 C.ar      1 <0>        -0.0286
      5 C5          1.2329   -0.6830   -0.0134 C.ar      1 <0>        -0.0397
      6 C6          0.0021   -0.0041    0.0020 C.ar      1 <0>        -0.1018
      7 C7          1.2896   -2.0871   -0.0215 C.ar      1 <0>        -0.0958
      8 C8          2.4959   -2.7194   -0.0368 C.ar      1 <0>        -0.1051
      9 C9          3.6852   -1.9980   -0.0443 C.ar      1 <0>        -0.1217
     10 C10         3.6731   -0.6182   -0.0368 C.ar      1 <0>        -0.0848
     11 S1          5.1863    0.2843   -0.0475 S.3       1 <0>        -0.0724
     12 C11         6.4647   -1.0025   -0.0663 C.3       1 <0>        -0.0842
     13 C12         7.8267   -0.3575   -0.0767 C.ar      1 <0>         0.1666
     14 C13         8.4260   -0.0558   -1.2977 C.ar      1 <0>        -0.0648
     15 C14         9.6608    0.5298   -1.3267 C.ar      1 <0>        -0.0884
     16 C15        10.2884    0.8095   -0.1009 C.ar      1 <0>         0.1491
     17 C16         9.6197    0.4752    1.1008 C.ar      1 <0>         0.0270
     18 N1          8.4163   -0.0890    1.0648 N.ar      1 <0>        -0.4035
     19 C17        10.2982    0.7786    2.3618 C.ar      1 <0>         0.5744
     20 N2         11.4942    1.3463    2.2977 N.ar      1 <0>        -0.5876
     21 C18        12.0631    1.6328    1.1309 C.ar      1 <0>         0.6975
     22 N3         11.4969    1.3817   -0.0323 N.ar      1 <0>        -0.5815
     23 N4         13.3129    2.2255    1.1381 N.pl3     1 <0>        -0.7837
     24 N5          9.7130    0.4842    3.5750 N.pl3     1 <0>        -0.7368
     25 H1         -0.9633    1.8760    0.0259 H         1 <0>         0.1293
     26 H2          1.1265    3.1692    0.0083 H         1 <0>         0.1278
     27 H3          3.2889    2.0466   -0.0196 H         1 <0>         0.1264
     28 H4         -0.9241   -0.5595    0.0082 H         1 <0>         0.1336
     29 H5          0.3770   -2.6646   -0.0152 H         1 <0>         0.1338
     30 H6          2.5295   -3.7988   -0.0429 H         1 <0>         0.1304
     31 H7          4.6285   -2.5236   -0.0561 H         1 <0>         0.1228
     32 H8          6.3651   -1.6266    0.8218 H         1 <0>         0.1199
     33 H9          6.3475   -1.6182   -0.9580 H         1 <0>         0.1207
     34 H10         7.9151   -0.2850   -2.2212 H         1 <0>         0.1740
     35 H11        10.1401    0.7701   -2.2643 H         1 <0>         0.1750
     36 H12        13.7518    2.4217    1.9806 H         1 <0>         0.4465
     37 H13         8.8368    0.0689    3.6027 H         1 <0>         0.4431
     38 H14        10.1774    0.6924    4.4007 H         1 <0>         0.4347
     39 H15        13.7505    2.4450    0.3007 H         1 <0>         0.4321
     40 H16        11.9627    1.6143   -0.8507 H         1 <0>         0.4406
@<TRIPOS>BOND
     1    1    6 ar
     2    1    2 ar
     3    1   25 1
     4    2    3 ar
     5    2   26 1
     6    3    4 ar
     7    3   27 1
     8    4   10 ar
     9    4    5 ar
    10    5    6 ar
    11    5    7 ar
    12    6   28 1
    13    7    8 ar
    14    7   29 1
    15    8    9 ar
    16    8   30 1
    17    9   10 ar
    18    9   31 1
    19   10   11 1
    20   11   12 1
    21   12   13 1
    22   12   32 1
    23   12   33 1
    24   13   18 ar
    25   13   14 ar
    26   14   15 ar
    27   14   34 1
    28   15   16 ar
    29   15   35 1
    30   16   22 ar
    31   16   17 ar
    32   17   18 ar
    33   17   19 ar
    34   19   20 ar
    35   19   24 1
    36   20   21 ar
    37   21   22 ar
    38   21   23 1
    39   22   40 1
    40   23   36 1
    41   23   39 1
    42   24   37 1
    43   24   38 1
@<TRIPOS>MOLECULE
CHEMBL54538
   44    47     0     0     0
SMALL
USER_CHARGES

@<TRIPOS>ATOM
      1 C1         -0.0178    1.4608    0.0101 C.3       1 <0>         0.1118
      2 N1          0.0021   -0.0041    0.0020 N.pl3     1 <0>        -0.6634
      3 C2          0.0241   -0.7433    1.2666 C.3       1 <0>         0.1857
      4 C3         -1.3889   -1.0161    1.7137 C.ar      1 <0>         0.1337
      5 C4         -1.9785   -2.2374    1.3945 C.ar      1 <0>        -0.0628
      6 C5         -3.2592   -2.5027    1.7919 C.ar      1 <0>        -0.0931
      7 C6         -3.9430   -1.5145    2.5205 C.ar      1 <0>         0.1437
      8 C7         -3.2809   -0.2973    2.8085 C.ar      1 <0>         0.0215
      9 N2         -2.0316   -0.0994    2.3988 N.ar      1 <0>        -0.4089
     10 C8         -4.0185    0.7128    3.5689 C.ar      1 <0>         0.5730
     11 N3         -5.2579    0.4233    3.9387 N.ar      1 <0>        -0.5890
     12 C9         -5.8174   -0.7430    3.6323 C.ar      1 <0>         0.6959
     13 N4         -5.1990   -1.6866    2.9511 N.ar      1 <0>        -0.5807
     14 N5         -7.1147   -0.9786    4.0507 N.pl3     1 <0>        -0.7859
     15 N6         -3.4433    1.9240    3.8900 N.pl3     1 <0>        -0.7401
     16 C10         0.0000   -0.6941   -1.2083 C.ar      1 <0>         0.1603
     17 C11         1.1893   -1.0275   -1.8211 C.ar      1 <0>        -0.1091
     18 C12         1.1981   -1.7170   -3.0296 C.ar      1 <0>        -0.1065
     19 C13         0.0365   -2.0807   -3.6401 C.ar      1 <0>        -0.1023
     20 C14        -1.1973   -1.7601   -3.0488 C.ar      1 <0>        -0.0462
     21 C15        -1.2195   -1.0634   -1.8154 C.ar      1 <0>        -0.0557
     22 C16        -2.4526   -0.7484   -1.2237 C.ar      1 <0>        -0.1069
     23 C17        -3.6095   -1.1201   -1.8379 C.ar      1 <0>        -0.1186
     24 C18        -3.5888   -1.8108   -3.0480 C.ar      1 <0>        -0.1188
     25 C19        -2.4120   -2.1225   -3.6565 C.ar      1 <0>        -0.0966
     26 H1          1.0048    1.8381    0.0023 H         1 <0>         0.0469
     27 H2         -0.5450    1.8219   -0.8730 H         1 <0>         0.0573
     28 H3         -0.5280    1.8123    0.9069 H         1 <0>         0.0621
     29 H4          0.5496   -1.6879    1.1262 H         1 <0>         0.0977
     30 H5          0.5371   -0.1514    2.0246 H         1 <0>         0.1006
     31 H6         -1.4238   -2.9743    0.8326 H         1 <0>         0.1648
     32 H7         -3.7317   -3.4439    1.5528 H         1 <0>         0.1689
     33 H8         -7.5925   -0.3011    4.5542 H         1 <0>         0.4458
     34 H9         -2.5348    2.1186    3.6113 H         1 <0>         0.4418
     35 H10        -3.9472    2.5816    4.3946 H         1 <0>         0.4335
     36 H11         2.1247   -0.7500   -1.3579 H         1 <0>         0.1285
     37 H12         2.1418   -1.9675   -3.4913 H         1 <0>         0.1295
     38 H13         0.0634   -2.6149   -4.5783 H         1 <0>         0.1310
     39 H14        -2.4836   -0.2141   -0.2856 H         1 <0>         0.1134
     40 H15        -4.5570   -0.8764   -1.3804 H         1 <0>         0.1118
     41 H16        -4.5206   -2.0948   -3.5145 H         1 <0>         0.1239
     42 H17        -2.4111   -2.6572   -4.5949 H         1 <0>         0.1312
     43 H18        -7.5466   -1.8214    3.8405 H         1 <0>         0.4315
     44 H19        -5.6608   -2.5176    2.7584 H         1 <0>         0.4391
@<TRIPOS>BOND
     1    1    2 1
     2    1   26 1
     3    1   27 1
     4    1   28 1
     5    2    3 1
     6    2   16 1
     7    3    4 1
     8    3   29 1
     9    3   30 1
    10    4    9 ar
    11    4    5 ar
    12    5    6 ar
    13    5   31 1
    14    6    7 ar
    15    6   32 1
    16    7   13 ar
    17    7    8 ar
    18    8    9 ar
    19    8   10 ar
    20   10   11 ar
    21   10   15 1
    22   11   12 ar
    23   12   13 ar
    24   12   14 1
    25   13   44 1
    26   14   33 1
    27   14   43 1
    28   15   34 1
    29   15   35 1
    30   16   21 ar
    31   16   17 ar
    32   17   18 ar
    33   17   36 1
    34   18   19 ar
    35   18   37 1
    36   19   20 ar
    37   19   38 1
    38   20   25 ar
    39   20   21 ar
    40   21   22 ar
    41   22   23 ar
    42   22   39 1
    43   23   24 ar
    44   23   40 1
    45   24   25 ar
    46   24   41 1
    47   25   42 1
@<TRIPOS>MOLECULE
CHEMBL41056
   58    60     0     0     0
SMALL
USER_CHARGES

@<TRIPOS>ATOM
      1 C1         -1.2557    1.2710    1.9762 C.ar      1 <0>        -0.1278
      2 C2         -0.1924    2.0876    2.3014 C.ar      1 <0>        -0.0639
      3 C3          1.1124    1.6024    2.2008 C.ar      1 <0>        -0.1034
      4 C4          1.3322    0.2927    1.7714 C.ar      1 <0>        -0.0823
      5 C5          0.2601   -0.5135    1.4493 C.ar      1 <0>        -0.1234
      6 C6         -1.0309   -0.0263    1.5512 C.ar      1 <0>        -0.0870
      7 C7         -2.1973   -0.9127    1.1977 C.3       1 <0>        -0.0745
      8 C8         -2.5267   -0.7538   -0.2879 C.3       1 <0>        -0.1188
      9 C9         -3.7109   -1.6537   -0.6468 C.3       1 <0>        -0.1162
     10 C10        -3.9842   -1.5619   -2.1494 C.3       1 <0>        -0.0400
     11 C11        -4.5486   -0.1698   -2.5075 C.3       1 <0>        -0.1117
     12 C12        -5.5417   -0.4975   -3.6434 C.3       1 <0>        -0.0883
     13 C13        -5.9593   -1.9308   -3.4030 C.ar      1 <0>         0.2122
     14 C14        -5.0654   -2.5397   -2.5464 C.ar      1 <0>        -0.2326
     15 C15        -5.2758   -3.8750   -2.1971 C.ar      1 <0>         0.5428
     16 N1         -6.3277   -4.5143   -2.6994 N.ar      1 <0>        -0.5721
     17 C16        -7.1637   -3.8949   -3.5188 C.ar      1 <0>         0.6632
     18 N2         -6.9879   -2.6287   -3.8659 N.ar      1 <0>        -0.5606
     19 N3         -8.2492   -4.5882   -4.0250 N.pl3     1 <0>        -0.7965
     20 N4         -4.4016   -4.5239   -1.3405 N.pl3     1 <0>        -0.7809
     21 C17         2.2567    2.4721    2.5471 C.2       1 <0>         0.5390
     22 O1          2.0623    3.6124    2.9204 O.2       1 <0>        -0.5505
     23 N5          3.5155    2.0006    2.4489 N.am      1 <0>        -0.6726
     24 C18         4.6494    2.8624    2.7921 C.3       1 <0>         0.0728
     25 C19         5.8974    2.3839    2.0474 C.3       1 <0>        -0.0833
     26 C20         5.6932    2.5640    0.5418 C.3       1 <0>        -0.1763
     27 C21         6.9224    2.0927   -0.1917 C.2       1 <0>         0.4903
     28 O2          7.8736    1.6535    0.4319 O.co2     1 <0>        -0.6954
     29 O3          6.9657    2.1507   -1.4088 O.co2     1 <0>        -0.7198
     30 C22         4.8961    2.8002    4.2775 C.2       1 <0>         0.4978
     31 O4          4.6282    1.7854    4.8980 O.co2     1 <0>        -0.6994
     32 O5          5.3636    3.7646    4.8587 O.co2     1 <0>        -0.6976
     33 H1         -2.2661    1.6438    2.0579 H         1 <0>         0.1205
     34 H2         -0.3692    3.1002    2.6327 H         1 <0>         0.1350
     35 H3          2.3395   -0.0887    1.6910 H         1 <0>         0.1311
     36 H4          0.4288   -1.5271    1.1169 H         1 <0>         0.1222
     37 H5         -1.9397   -1.9516    1.4037 H         1 <0>         0.0700
     38 H6         -3.0639   -0.6281    1.7945 H         1 <0>         0.0702
     39 H7         -2.7843    0.2851   -0.4939 H         1 <0>         0.0740
     40 H8         -1.6601   -1.0384   -0.8847 H         1 <0>         0.0732
     41 H9         -3.4768   -2.6849   -0.3824 H         1 <0>         0.0613
     42 H10        -4.5939   -1.3290   -0.0964 H         1 <0>         0.0742
     43 H11        -3.0715   -1.7580   -2.7120 H         1 <0>         0.1103
     44 H12        -5.0663    0.2695   -1.6548 H         1 <0>         0.0947
     45 H13        -3.7568    0.4895   -2.8632 H         1 <0>         0.1093
     46 H14        -6.4075    0.1626   -3.5909 H         1 <0>         0.1100
     47 H15        -5.0520   -0.4038   -4.6127 H         1 <0>         0.1236
     48 H16        -8.3899   -5.5158   -3.7788 H         1 <0>         0.4439
     49 H17        -8.8693   -4.1466   -4.6262 H         1 <0>         0.4285
     50 H18        -3.5345   -4.1349   -1.1463 H         1 <0>         0.4341
     51 H19        -4.6567   -5.3673   -0.9348 H         1 <0>         0.4256
     52 H20         3.6707    1.0906    2.1510 H         1 <0>         0.3909
     53 H21         4.4256    3.8894    2.5037 H         1 <0>         0.0790
     54 H22         6.7592    2.9683    2.3697 H         1 <0>         0.0745
     55 H23         6.0700    1.3303    2.2672 H         1 <0>         0.0605
     56 H24         4.8314    1.9796    0.2196 H         1 <0>         0.0490
     57 H25         5.5205    3.6176    0.3220 H         1 <0>         0.0530
     58 H26        -7.6199   -2.2061   -4.4683 H         1 <0>         0.4379
@<TRIPOS>BOND
     1    1    6 ar
     2    1    2 ar
     3    1   33 1
     4    2    3 ar
     5    2   34 1
     6    3    4 ar
     7    3   21 1
     8    4    5 ar
     9    4   35 1
    10    5    6 ar
    11    5   36 1
    12    6    7 1
    13    7    8 1
    14    7   37 1
    15    7   38 1
    16    8    9 1
    17    8   39 1
    18    8   40 1
    19    9   10 1
    20    9   41 1
    21    9   42 1
    22   10   14 1
    23   10   11 1
    24   10   43 1
    25   11   12 1
    26   11   44 1
    27   11   45 1
    28   12   13 1
    29   12   46 1
    30   12   47 1
    31   13   18 ar
    32   13   14 ar
    33   14   15 ar
    34   15   16 ar
    35   15   20 1
    36   16   17 ar
    37   17   18 ar
    38   17   19 1
    39   18   58 1
    40   19   48 1
    41   19   49 1
    42   20   50 1
    43   20   51 1
    44   21   22 2
    45   21   23 am
    46   23   24 1
    47   23   52 1
    48   24   25 1
    49   24   30 1
    50   24   53 1
    51   25   26 1
    52   25   54 1
    53   25   55 1
    54   26   27 1
    55   26   56 1
    56   26   57 1
    57   27   28 2
    58   27   29 1
    59   30   31 2
    60   30   32 1
@<TRIPOS>MOLECULE
CHEMBL41056__1
   58    60     0     0     0
SMALL
USER_CHARGES

@<TRIPOS>ATOM
      1 C1         -1.2557    1.2710    1.9762 C.ar      1 <0>        -0.1277
      2 C2         -0.1924    2.0876    2.3014 C.ar      1 <0>        -0.0641
      3 C3          1.1124    1.6024    2.2008 C.ar      1 <0>        -0.1009
      4 C4          1.3322    0.2927    1.7714 C.ar      1 <0>        -0.0832
      5 C5          0.2601   -0.5135    1.4493 C.ar      1 <0>        -0.1235
      6 C6         -1.0309   -0.0263    1.5512 C.ar      1 <0>        -0.0881
      7 C7         -2.1973   -0.9127    1.1977 C.3       1 <0>        -0.0742
      8 C8         -2.5267   -0.7538   -0.2879 C.3       1 <0>        -0.1190
      9 C9         -3.7109   -1.6537   -0.6468 C.3       1 <0>        -0.1161
     10 C10        -3.9842   -1.5619   -2.1494 C.3       1 <0>        -0.0399
     11 C11        -4.5486   -0.1698   -2.5075 C.3       1 <0>        -0.1119
     12 C12        -5.5417   -0.4975   -3.6434 C.3       1 <0>        -0.0882
     13 C13        -5.9593   -1.9308   -3.4030 C.ar      1 <0>         0.2121
     14 C14        -5.0654   -2.5397   -2.5464 C.ar      1 <0>        -0.2326
     15 C15        -5.2758   -3.8750   -2.1971 C.ar      1 <0>         0.5427
     16 N1         -6.3277   -4.5143   -2.6994 N.ar      1 <0>        -0.5722
     17 C16        -7.1637   -3.8949   -3.5188 C.ar      1 <0>         0.6632
     18 N2         -6.9879   -2.6287   -3.8659 N.ar      1 <0>        -0.5606
     19 N3         -8.2492   -4.5882   -4.0250 N.pl3     1 <0>        -0.7965
     20 N4         -4.4016   -4.5239   -1.3405 N.pl3     1 <0>        -0.7808
     21 C17         2.2567    2.4721    2.5471 C.2       1 <0>         0.5460
     22 O1          2.0623    3.6124    2.9204 O.2       1 <0>        -0.5520
     23 N5          3.5155    2.0006    2.4489 N.am      1 <0>        -0.6731
     24 C18         4.6494    2.8624    2.7921 C.3       1 <0>         0.0716
     25 C19         5.8423    1.9965    3.2022 C.3       1 <0>        -0.0810
     26 C20         5.5051    1.2399    4.4885 C.3       1 <0>        -0.1777
     27 C21         6.6800    0.3870    4.8924 C.2       1 <0>         0.4902
     28 O2          7.6933    0.3845    4.2142 O.co2     1 <0>        -0.6959
     29 O3          6.6174   -0.3006    5.8973 O.co2     1 <0>        -0.7193
     30 C22         5.0239    3.6997    1.5964 C.2       1 <0>         0.4962
     31 O4          4.4014    3.5870    0.5542 O.co2     1 <0>        -0.6996
     32 O5          5.9495    4.4898    1.6713 O.co2     1 <0>        -0.6959
     33 H1         -2.2661    1.6438    2.0579 H         1 <0>         0.1201
     34 H2         -0.3692    3.1002    2.6327 H         1 <0>         0.1347
     35 H3          2.3395   -0.0887    1.6910 H         1 <0>         0.1301
     36 H4          0.4288   -1.5271    1.1169 H         1 <0>         0.1216
     37 H5         -1.9397   -1.9516    1.4037 H         1 <0>         0.0698
     38 H6         -3.0639   -0.6281    1.7945 H         1 <0>         0.0700
     39 H7         -2.7843    0.2851   -0.4939 H         1 <0>         0.0742
     40 H8         -1.6601   -1.0384   -0.8847 H         1 <0>         0.0729
     41 H9         -3.4768   -2.6849   -0.3824 H         1 <0>         0.0613
     42 H10        -4.5939   -1.3290   -0.0964 H         1 <0>         0.0742
     43 H11        -3.0715   -1.7580   -2.7120 H         1 <0>         0.1101
     44 H12        -5.0663    0.2695   -1.6548 H         1 <0>         0.0949
     45 H13        -3.7568    0.4895   -2.8632 H         1 <0>         0.1095
     46 H14        -6.4075    0.1626   -3.5909 H         1 <0>         0.1101
     47 H15        -5.0520   -0.4038   -4.6127 H         1 <0>         0.1235
     48 H16        -8.3899   -5.5158   -3.7788 H         1 <0>         0.4439
     49 H17        -8.8693   -4.1466   -4.6262 H         1 <0>         0.4285
     50 H18        -3.5345   -4.1349   -1.1463 H         1 <0>         0.4342
     51 H19        -4.6567   -5.3673   -0.9348 H         1 <0>         0.4257
     52 H20         3.6707    1.0906    2.1510 H         1 <0>         0.3887
     53 H21         4.3723    3.5148    3.6202 H         1 <0>         0.0792
     54 H22         6.0633    1.2830    2.4083 H         1 <0>         0.0550
     55 H23         6.7114    2.6321    3.3717 H         1 <0>         0.0809
     56 H24         5.2841    1.9533    5.2824 H         1 <0>         0.0528
     57 H25         4.6360    0.6042    4.3190 H         1 <0>         0.0484
     58 H26        -7.6199   -2.2061   -4.4683 H         1 <0>         0.4379
@<TRIPOS>BOND
     1    1    6 ar
     2    1    2 ar
     3    1   33 1
     4    2    3 ar
     5    2   34 1
     6    3    4 ar
     7    3   21 1
     8    4    5 ar
     9    4   35 1
    10    5    6 ar
    11    5   36 1
    12    6    7 1
    13    7    8 1
    14    7   37 1
    15    7   38 1
    16    8    9 1
    17    8   39 1
    18    8   40 1
    19    9   10 1
    20    9   41 1
    21    9   42 1
    22   10   14 1
    23   10   11 1
    24   10   43 1
    25   11   12 1
    26   11   44 1
    27   11   45 1
    28   12   13 1
    29   12   46 1
    30   12   47 1
    31   13   18 ar
    32   13   14 ar
    33   14   15 ar
    34   15   16 ar
    35   15   20 1
    36   16   17 ar
    37   17   18 ar
    38   17   19 1
    39   18   58 1
    40   19   48 1
    41   19   49 1
    42   20   50 1
    43   20   51 1
    44   21   22 2
    45   21   23 am
    46   23   24 1
    47   23   52 1
    48   24   25 1
    49   24   30 1
    50   24   53 1
    51   25   26 1
    52   25   54 1
    53   25   55 1
    54   26   27 1
    55   26   56 1
    56   26   57 1
    57   27   28 2
    58   27   29 1
    59   30   31 2
    60   30   32 1
@<TRIPOS>MOLECULE
CHEMBL41056__2
   58    60     0     0     0
SMALL
USER_CHARGES

@<TRIPOS>ATOM
      1 C1          0.3328    0.3039    0.7441 C.ar      1 <0>        -0.1282
      2 C2          1.6368    0.7321    0.8840 C.ar      1 <0>        -0.0641
      3 C3          2.6624   -0.2024    1.0362 C.ar      1 <0>        -0.1035
      4 C4          2.3607   -1.5651    1.0458 C.ar      1 <0>        -0.0821
      5 C5          1.0526   -1.9799    0.9050 C.ar      1 <0>        -0.1230
      6 C6          0.0407   -1.0484    0.7545 C.ar      1 <0>        -0.0869
      7 C7         -1.3861   -1.5088    0.6012 C.3       1 <0>        -0.0745
      8 C8         -1.6997   -1.7122   -0.8825 C.3       1 <0>        -0.1187
      9 C9         -3.1482   -2.1796   -1.0381 C.3       1 <0>        -0.1161
     10 C10        -3.4933   -2.2845   -2.5250 C.3       1 <0>        -0.0392
     11 C11        -2.7074   -3.4427   -3.1773 C.3       1 <0>        -0.1124
     12 C12        -3.7146   -3.9825   -4.2157 C.3       1 <0>        -0.0889
     13 C13        -5.0778   -3.6211   -3.6701 C.ar      1 <0>         0.2136
     14 C14        -4.9492   -2.6475   -2.7012 C.ar      1 <0>        -0.2332
     15 C15        -6.1013   -2.1740   -2.0704 C.ar      1 <0>         0.5427
     16 N1         -7.2811   -2.6754   -2.4227 N.ar      1 <0>        -0.5723
     17 C16        -7.3633   -3.6098   -3.3577 C.ar      1 <0>         0.6631
     18 N2         -6.2865   -4.0768   -3.9716 N.ar      1 <0>        -0.5602
     19 N3         -8.6063   -4.1119   -3.7015 N.pl3     1 <0>        -0.7964
     20 N4         -6.0164   -1.1970   -1.0919 N.pl3     1 <0>        -0.7824
     21 C17         4.0621    0.2493    1.1862 C.2       1 <0>         0.5390
     22 O1          4.3219    1.4367    1.1771 O.2       1 <0>        -0.5506
     23 N5          5.0501   -0.6555    1.3330 N.am      1 <0>        -0.6726
     24 C18         6.4372   -0.2080    1.4816 C.3       1 <0>         0.0728
     25 C19         7.3834   -1.3165    1.0161 C.3       1 <0>        -0.0833
     26 C20         7.1929   -1.5533   -0.4834 C.3       1 <0>        -0.1763
     27 C21         8.1250   -2.6452   -0.9419 C.2       1 <0>         0.4904
     28 O2          8.8723   -3.1840   -0.1433 O.co2     1 <0>        -0.6953
     29 O3          8.1317   -2.9898   -2.1114 O.co2     1 <0>        -0.7199
     30 C22         6.7099    0.1104    2.9291 C.2       1 <0>         0.4978
     31 O4          6.1129   -0.4878    3.8078 O.co2     1 <0>        -0.6992
     32 O5          7.5277    0.9661    3.2215 O.co2     1 <0>        -0.6977
     33 H1         -0.4622    1.0261    0.6307 H         1 <0>         0.1201
     34 H2          1.8636    1.7880    0.8754 H         1 <0>         0.1349
     35 H3          3.1498   -2.2932    1.1629 H         1 <0>         0.1312
     36 H4          0.8178   -3.0341    0.9122 H         1 <0>         0.1225
     37 H5         -1.5234   -2.4498    1.1339 H         1 <0>         0.0713
     38 H6         -2.0572   -0.7560    1.0145 H         1 <0>         0.0689
     39 H7         -1.5624   -0.7712   -1.4152 H         1 <0>         0.0717
     40 H8         -1.0286   -2.4650   -1.2958 H         1 <0>         0.0753
     41 H9         -3.2676   -3.1556   -0.5677 H         1 <0>         0.0747
     42 H10        -3.8150   -1.4619   -0.5601 H         1 <0>         0.0609
     43 H11        -3.2739   -1.3443   -3.0309 H         1 <0>         0.1090
     44 H12        -1.8068   -3.0725   -3.6670 H         1 <0>         0.1099
     45 H13        -2.4626   -4.2080   -2.4407 H         1 <0>         0.0959
     46 H14        -3.5548   -3.5037   -5.1818 H         1 <0>         0.1237
     47 H15        -3.6189   -5.0643   -4.3085 H         1 <0>         0.1111
     48 H16        -9.4030   -3.7793   -3.2594 H         1 <0>         0.4438
     49 H17        -8.6808   -4.7965   -4.3847 H         1 <0>         0.4287
     50 H18        -5.2022   -0.6790   -0.9932 H         1 <0>         0.4335
     51 H19        -6.7710   -1.0309   -0.5056 H         1 <0>         0.4253
     52 H20         4.8429   -1.6031    1.3403 H         1 <0>         0.3909
     53 H21         6.5977    0.6845    0.8768 H         1 <0>         0.0789
     54 H22         8.4142   -1.0191    1.2089 H         1 <0>         0.0745
     55 H23         7.1624   -2.2350    1.5599 H         1 <0>         0.0605
     56 H24         6.1622   -1.8507   -0.6762 H         1 <0>         0.0491
     57 H25         7.4139   -0.6349   -1.0273 H         1 <0>         0.0530
     58 H26        -6.3832   -4.7614   -4.6519 H         1 <0>         0.4383
@<TRIPOS>BOND
     1    1    6 ar
     2    1    2 ar
     3    1   33 1
     4    2    3 ar
     5    2   34 1
     6    3    4 ar
     7    3   21 1
     8    4    5 ar
     9    4   35 1
    10    5    6 ar
    11    5   36 1
    12    6    7 1
    13    7    8 1
    14    7   37 1
    15    7   38 1
    16    8    9 1
    17    8   39 1
    18    8   40 1
    19    9   10 1
    20    9   41 1
    21    9   42 1
    22   10   14 1
    23   10   11 1
    24   10   43 1
    25   11   12 1
    26   11   44 1
    27   11   45 1
    28   12   13 1
    29   12   46 1
    30   12   47 1
    31   13   18 ar
    32   13   14 ar
    33   14   15 ar
    34   15   16 ar
    35   15   20 1
    36   16   17 ar
    37   17   18 ar
    38   17   19 1
    39   18   58 1
    40   19   48 1
    41   19   49 1
    42   20   50 1
    43   20   51 1
    44   21   22 2
    45   21   23 am
    46   23   24 1
    47   23   52 1
    48   24   25 1
    49   24   30 1
    50   24   53 1
    51   25   26 1
    52   25   54 1
    53   25   55 1
    54   26   27 1
    55   26   56 1
    56   26   57 1
    57   27   28 2
    58   27   29 1
    59   30   31 2
    60   30   32 1
@<TRIPOS>MOLECULE
CHEMBL41056__3
   58    60     0     0     0
SMALL
USER_CHARGES

@<TRIPOS>ATOM
      1 C1          0.3328    0.3039    0.7441 C.ar      1 <0>        -0.1281
      2 C2          1.6368    0.7321    0.8840 C.ar      1 <0>        -0.0643
      3 C3          2.6624   -0.2024    1.0362 C.ar      1 <0>        -0.1010
      4 C4          2.3607   -1.5651    1.0458 C.ar      1 <0>        -0.0830
      5 C5          1.0526   -1.9799    0.9050 C.ar      1 <0>        -0.1231
      6 C6          0.0407   -1.0484    0.7545 C.ar      1 <0>        -0.0881
      7 C7         -1.3861   -1.5088    0.6012 C.3       1 <0>        -0.0742
      8 C8         -1.6997   -1.7122   -0.8825 C.3       1 <0>        -0.1189
      9 C9         -3.1482   -2.1796   -1.0381 C.3       1 <0>        -0.1161
     10 C10        -3.4933   -2.2845   -2.5250 C.3       1 <0>        -0.0393
     11 C11        -2.7074   -3.4427   -3.1773 C.3       1 <0>        -0.1124
     12 C12        -3.7146   -3.9825   -4.2157 C.3       1 <0>        -0.0887
     13 C13        -5.0778   -3.6211   -3.6701 C.ar      1 <0>         0.2132
     14 C14        -4.9492   -2.6475   -2.7012 C.ar      1 <0>        -0.2329
     15 C15        -6.1013   -2.1740   -2.0704 C.ar      1 <0>         0.5427
     16 N1         -7.2811   -2.6754   -2.4227 N.ar      1 <0>        -0.5722
     17 C16        -7.3633   -3.6098   -3.3577 C.ar      1 <0>         0.6630
     18 N2         -6.2865   -4.0768   -3.9716 N.ar      1 <0>        -0.5602
     19 N3         -8.6063   -4.1119   -3.7015 N.pl3     1 <0>        -0.7964
     20 N4         -6.0164   -1.1970   -1.0919 N.pl3     1 <0>        -0.7822
     21 C17         4.0621    0.2493    1.1862 C.2       1 <0>         0.5460
     22 O1          4.3219    1.4367    1.1771 O.2       1 <0>        -0.5521
     23 N5          5.0501   -0.6555    1.3330 N.am      1 <0>        -0.6731
     24 C18         6.4372   -0.2080    1.4816 C.3       1 <0>         0.0716
     25 C19         7.2407   -1.2760    2.2263 C.3       1 <0>        -0.0809
     26 C20         6.7052   -1.4149    3.6528 C.3       1 <0>        -0.1777
     27 C21         7.4966   -2.4668    4.3863 C.2       1 <0>         0.4903
     28 O2          8.4048   -3.0513    3.8205 O.co2     1 <0>        -0.6960
     29 O3          7.2287   -2.7334    5.5454 O.co2     1 <0>        -0.7192
     30 C22         7.0413    0.0163    0.1193 C.2       1 <0>         0.4961
     31 O4          6.3750   -0.1796   -0.8828 O.co2     1 <0>        -0.6996
     32 O5          8.1964    0.3936    0.0193 O.co2     1 <0>        -0.6959
     33 H1         -0.4622    1.0261    0.6307 H         1 <0>         0.1198
     34 H2          1.8636    1.7880    0.8754 H         1 <0>         0.1346
     35 H3          3.1498   -2.2932    1.1629 H         1 <0>         0.1302
     36 H4          0.8178   -3.0341    0.9122 H         1 <0>         0.1220
     37 H5         -1.5234   -2.4498    1.1339 H         1 <0>         0.0711
     38 H6         -2.0572   -0.7560    1.0145 H         1 <0>         0.0687
     39 H7         -1.5624   -0.7712   -1.4152 H         1 <0>         0.0719
     40 H8         -1.0286   -2.4650   -1.2958 H         1 <0>         0.0751
     41 H9         -3.2676   -3.1556   -0.5677 H         1 <0>         0.0746
     42 H10        -3.8150   -1.4619   -0.5601 H         1 <0>         0.0609
     43 H11        -3.2739   -1.3443   -3.0309 H         1 <0>         0.1092
     44 H12        -1.8068   -3.0725   -3.6670 H         1 <0>         0.1098
     45 H13        -2.4626   -4.2080   -2.4407 H         1 <0>         0.0958
     46 H14        -3.5548   -3.5037   -5.1818 H         1 <0>         0.1235
     47 H15        -3.6189   -5.0643   -4.3085 H         1 <0>         0.1108
     48 H16        -9.4030   -3.7793   -3.2594 H         1 <0>         0.4438
     49 H17        -8.6808   -4.7965   -4.3847 H         1 <0>         0.4287
     50 H18        -5.2022   -0.6790   -0.9932 H         1 <0>         0.4336
     51 H19        -6.7710   -1.0309   -0.5056 H         1 <0>         0.4253
     52 H20         4.8429   -1.6031    1.3403 H         1 <0>         0.3887
     53 H21         6.4597    0.7237    2.0469 H         1 <0>         0.0791
     54 H22         7.1450   -2.2300    1.7078 H         1 <0>         0.0551
     55 H23         8.2903   -0.9839    2.2591 H         1 <0>         0.0808
     56 H24         6.8008   -0.4608    4.1712 H         1 <0>         0.0527
     57 H25         5.6555   -1.7069    3.6200 H         1 <0>         0.0484
     58 H26        -6.3832   -4.7614   -4.6519 H         1 <0>         0.4382
@<TRIPOS>BOND
     1    1    6 ar
     2    1    2 ar
     3    1   33 1
     4    2    3 ar
     5    2   34 1
     6    3    4 ar
     7    3   21 1
     8    4    5 ar
     9    4   35 1
    10    5    6 ar
    11    5   36 1
    12    6    7 1
    13    7    8 1
    14    7   37 1
    15    7   38 1
    16    8    9 1
    17    8   39 1
    18    8   40 1
    19    9   10 1
    20    9   41 1
    21    9   42 1
    22   10   14 1
    23   10   11 1
    24   10   43 1
    25   11   12 1
    26   11   44 1
    27   11   45 1
    28   12   13 1
    29   12   46 1
    30   12   47 1
    31   13   18 ar
    32   13   14 ar
    33   14   15 ar
    34   15   16 ar
    35   15   20 1
    36   16   17 ar
    37   17   18 ar
    38   17   19 1
    39   18   58 1
    40   19   48 1
    41   19   49 1
    42   20   50 1
    43   20   51 1
    44   21   22 2
    45   21   23 am
    46   23   24 1
    47   23   52 1
    48   24   25 1
    49   24   30 1
    50   24   53 1
    51   25   26 1
    52   25   54 1
    53   25   55 1
    54   26   27 1
    55   26   56 1
    56   26   57 1
    57   27   28 2
    58   27   29 1
    59   30   31 2
    60   30   32 1
@<TRIPOS>MOLECULE
CHEMBL119204
   36    38     0     0     0
SMALL
USER_CHARGES

@<TRIPOS>ATOM
      1 C1         -0.0167    1.3779    0.0096 C.ar      1 <0>        -0.1000
      2 C2          1.1696    2.0876    0.0021 C.ar      1 <0>        -0.1048
      3 C3          2.3817    1.4145   -0.0127 C.ar      1 <0>         0.0648
      4 C4          2.4006    0.0245   -0.0177 C.ar      1 <0>         0.0575
      5 C5          1.2071   -0.6813   -0.0113 C.ar      1 <0>        -0.1289
      6 C6          0.0021   -0.0041    0.0020 C.ar      1 <0>        -0.1209
      7 C7         -1.2934   -0.7739    0.0087 C.3       1 <0>        -0.0635
      8 C8         -1.7438   -1.0267   -1.4315 C.3       1 <0>        -0.1027
      9 C9         -3.1102   -1.7270   -1.4313 C.3       1 <0>         0.1247
     10 N1         -2.9299   -3.1011   -0.9351 N.pl3     1 <0>        -0.7839
     11 C10        -1.9415   -3.8746   -1.5230 C.2       1 <0>         0.6038
     12 N2         -0.7084   -3.2590   -1.7257 N.pl3     1 <0>        -0.6488
     13 C11        -0.7469   -1.9310   -2.1274 C.cat     1 <0>         0.5736
     14 N3          0.0339   -1.4850   -3.0555 N.pl3     1 <0>        -0.6784
     15 N4         -2.1542   -5.1125   -1.8677 N.2       1 <0>        -0.6813
     16 O1          3.5794   -0.6560   -0.0244 O.3       1 <0>        -0.3068
     17 C12         4.7458    0.0812   -0.4063 C.3       1 <0>         0.0198
     18 C13         4.7331    1.4219    0.3404 C.3       1 <0>         0.0175
     19 O2          3.5415    2.1268   -0.0241 O.3       1 <0>        -0.3016
     20 H1         -0.9596    1.9041    0.0259 H         1 <0>         0.1417
     21 H2          1.1522    3.1675    0.0074 H         1 <0>         0.1444
     22 H3          1.2190   -1.7612   -0.0174 H         1 <0>         0.1255
     23 H4         -1.1469   -1.7274    0.5162 H         1 <0>         0.0948
     24 H5         -2.0561   -0.1973    0.5320 H         1 <0>         0.1192
     25 H6         -1.8158   -0.0793   -1.9657 H         1 <0>         0.1421
     26 H7         -3.7974   -1.1890   -0.7783 H         1 <0>         0.1249
     27 H8         -3.5087   -1.7531   -2.4455 H         1 <0>         0.0874
     28 H9         -0.0107   -0.5529   -3.3204 H         1 <0>         0.4543
     29 H10         0.6645   -2.0823   -3.4873 H         1 <0>         0.4391
     30 H11        -3.0229   -5.5161   -1.7144 H         1 <0>         0.3798
     31 H12         5.6402   -0.4808   -0.1375 H         1 <0>         0.1307
     32 H13         4.7323    0.2592   -1.4816 H         1 <0>         0.0813
     33 H14         4.7403    1.2438    1.4157 H         1 <0>         0.0848
     34 H15         5.6078    2.0080    0.0585 H         1 <0>         0.1317
     35 H16        -3.4841   -3.4533   -0.2211 H         1 <0>         0.4284
     36 H17         0.1286   -3.7310   -1.5935 H         1 <0>         0.4499
@<TRIPOS>BOND
     1    1    6 ar
     2    1    2 ar
     3    1   20 1
     4    2    3 ar
     5    2   21 1
     6    3   19 1
     7    3    4 ar
     8    4    5 ar
     9    4   16 1
    10    5    6 ar
    11    5   22 1
    12    6    7 1
    13    7    8 1
    14    7   23 1
    15    7   24 1
    16    8   13 1
    17    8    9 1
    18    8   25 1
    19    9   10 1
    20    9   26 1
    21    9   27 1
    22   10   11 1
    23   10   35 1
    24   11   12 1
    25   11   15 2
    26   12   13 1
    27   12   36 1
    28   13   14 2
    29   14   28 1
    30   14   29 1
    31   15   30 1
    32   16   17 1
    33   17   18 1
    34   17   31 1
    35   17   32 1
    36   18   19 1
    37   18   33 1
    38   18   34 1
@<TRIPOS>MOLECULE
CHEMBL119204__1
   36    38     0     0     0
SMALL
USER_CHARGES

@<TRIPOS>ATOM
      1 C1         -0.0167    1.3779    0.0096 C.ar      1 <0>        -0.0986
      2 C2          1.1696    2.0876    0.0021 C.ar      1 <0>        -0.1049
      3 C3          2.3817    1.4145   -0.0127 C.ar      1 <0>         0.0651
      4 C4          2.4006    0.0245   -0.0177 C.ar      1 <0>         0.0561
      5 C5          1.2071   -0.6813   -0.0113 C.ar      1 <0>        -0.1238
      6 C6          0.0021   -0.0041    0.0020 C.ar      1 <0>        -0.1202
      7 C7         -1.2934   -0.7739    0.0087 C.3       1 <0>        -0.0660
      8 C8         -1.7438   -1.0267   -1.4315 C.3       1 <0>        -0.1108
      9 C9         -3.1140   -1.7100   -1.4276 C.3       1 <0>         0.0656
     10 N1         -2.9581   -3.1052   -1.0122 N.2       1 <0>        -0.5658
     11 C10        -1.8859   -3.7795   -1.3193 C.2       1 <0>         0.5849
     12 N2         -0.8748   -3.2241   -2.0297 N.pl3     1 <0>        -0.5989
     13 C11        -0.7494   -1.9270   -2.1208 C.cat     1 <0>         0.5605
     14 N3          0.2754   -1.3897   -2.8356 N.pl3     1 <0>        -0.7470
     15 N4         -1.7780   -5.0926   -0.9110 N.pl3     1 <0>        -0.8226
     16 O1          3.5794   -0.6560   -0.0244 O.3       1 <0>        -0.3072
     17 C12         4.7458    0.0812   -0.4063 C.3       1 <0>         0.0199
     18 C13         4.7331    1.4219    0.3404 C.3       1 <0>         0.0174
     19 O2          3.5415    2.1268   -0.0241 O.3       1 <0>        -0.3013
     20 H1         -0.9596    1.9041    0.0259 H         1 <0>         0.1423
     21 H2          1.1522    3.1675    0.0074 H         1 <0>         0.1449
     22 H3          1.2190   -1.7612   -0.0174 H         1 <0>         0.1235
     23 H4         -1.1469   -1.7274    0.5162 H         1 <0>         0.0881
     24 H5         -2.0561   -0.1973    0.5320 H         1 <0>         0.1220
     25 H6         -1.8088   -0.0785   -1.9652 H         1 <0>         0.1489
     26 H7         -3.7755   -1.1948   -0.7310 H         1 <0>         0.1359
     27 H8         -3.5413   -1.6744   -2.4297 H         1 <0>         0.0971
     28 H9          0.3674   -0.4264   -2.9025 H         1 <0>         0.4507
     29 H10         0.9143   -1.9698   -3.2784 H         1 <0>         0.4315
     30 H11        -2.4948   -5.5027   -0.4020 H         1 <0>         0.4392
     31 H12        -0.9855   -5.6060   -1.1328 H         1 <0>         0.4154
     32 H13         5.6402   -0.4808   -0.1375 H         1 <0>         0.1301
     33 H14         4.7323    0.2592   -1.4816 H         1 <0>         0.0813
     34 H15         4.7403    1.2438    1.4157 H         1 <0>         0.0846
     35 H16         5.6078    2.0080    0.0585 H         1 <0>         0.1316
     36 H17        -0.2340   -3.7985   -2.4773 H         1 <0>         0.4304
@<TRIPOS>BOND
     1    1    6 ar
     2    1    2 ar
     3    1   20 1
     4    2    3 ar
     5    2   21 1
     6    3   19 1
     7    3    4 ar
     8    4    5 ar
     9    4   16 1
    10    5    6 ar
    11    5   22 1
    12    6    7 1
    13    7    8 1
    14    7   23 1
    15    7   24 1
    16    8   13 1
    17    8    9 1
    18    8   25 1
    19    9   10 1
    20    9   26 1
    21    9   27 1
    22   10   11 2
    23   11   12 1
    24   11   15 1
    25   12   13 2
    26   12   36 1
    27   13   14 1
    28   14   28 1
    29   14   29 1
    30   15   30 1
    31   15   31 1
    32   16   17 1
    33   17   18 1
    34   17   32 1
    35   17   33 1
    36   18   19 1
    37   18   34 1
    38   18   35 1
@<TRIPOS>MOLECULE
CHEMBL119204__2
   36    38     0     0     0
SMALL
USER_CHARGES

@<TRIPOS>ATOM
      1 C1         -0.0167    1.3779    0.0096 C.ar      1 <0>        -0.1289
      2 C2          1.1696    2.0876    0.0021 C.ar      1 <0>        -0.1083
      3 C3          2.3817    1.4145   -0.0127 C.ar      1 <0>         0.0636
      4 C4          2.4006    0.0245   -0.0177 C.ar      1 <0>         0.0625
      5 C5          1.2071   -0.6813   -0.0113 C.ar      1 <0>        -0.1023
      6 C6          0.0021   -0.0041    0.0020 C.ar      1 <0>        -0.1185
      7 C7         -1.2934   -0.7739    0.0087 C.3       1 <0>        -0.0637
      8 C8         -1.7438   -1.0267   -1.4315 C.3       1 <0>        -0.1037
      9 C9         -3.0121   -1.8920   -1.4330 C.3       1 <0>         0.1307
     10 N1         -4.1282   -1.0844   -0.9142 N.pl3     1 <0>        -0.7353
     11 C10        -4.3403    0.1623   -1.4813 C.2       1 <0>         0.6091
     12 N2         -3.2119    0.9541   -1.6822 N.pl3     1 <0>        -0.6991
     13 C11        -2.0677    0.2917   -2.1044 C.cat     1 <0>         0.5662
     14 N3         -1.3106    0.7788   -3.0315 N.pl3     1 <0>        -0.6822
     15 N4         -5.5322    0.5721   -1.8097 N.2       1 <0>        -0.6647
     16 O1          3.5794   -0.6560   -0.0244 O.3       1 <0>        -0.3021
     17 C12         4.7458    0.0812   -0.4063 C.3       1 <0>         0.0195
     18 C13         4.7331    1.4219    0.3404 C.3       1 <0>         0.0174
     19 O2          3.5415    2.1268   -0.0241 O.3       1 <0>        -0.3037
     20 H1         -0.9596    1.9041    0.0259 H         1 <0>         0.1226
     21 H2          1.1522    3.1675    0.0074 H         1 <0>         0.1397
     22 H3          1.2190   -1.7612   -0.0174 H         1 <0>         0.1434
     23 H4         -1.1469   -1.7274    0.5162 H         1 <0>         0.1182
     24 H5         -2.0561   -0.1973    0.5320 H         1 <0>         0.0968
     25 H6         -0.9510   -1.5346   -1.9807 H         1 <0>         0.1408
     26 H7         -3.2348   -2.2140   -2.4503 H         1 <0>         0.0891
     27 H8         -2.8623   -2.7627   -0.7945 H         1 <0>         0.1301
     28 H9         -0.5154    0.2985   -3.3105 H         1 <0>         0.4526
     29 H10        -1.5376    1.6247   -3.4485 H         1 <0>         0.4371
     30 H11        -5.6516    1.4497   -2.2051 H         1 <0>         0.3646
     31 H12         5.6402   -0.4808   -0.1375 H         1 <0>         0.1317
     32 H13         4.7323    0.2592   -1.4816 H         1 <0>         0.0826
     33 H14         4.7403    1.2438    1.4157 H         1 <0>         0.0850
     34 H15         5.6078    2.0080    0.0585 H         1 <0>         0.1315
     35 H16        -4.6961   -1.4137   -0.2001 H         1 <0>         0.4364
     36 H17        -3.2252    1.9129   -1.5357 H         1 <0>         0.4413
@<TRIPOS>BOND
     1    1    6 ar
     2    1    2 ar
     3    1   20 1
     4    2    3 ar
     5    2   21 1
     6    3   19 1
     7    3    4 ar
     8    4    5 ar
     9    4   16 1
    10    5    6 ar
    11    5   22 1
    12    6    7 1
    13    7    8 1
    14    7   23 1
    15    7   24 1
    16    8   13 1
    17    8    9 1
    18    8   25 1
    19    9   10 1
    20    9   26 1
    21    9   27 1
    22   10   11 1
    23   10   35 1
    24   11   12 1
    25   11   15 2
    26   12   13 1
    27   12   36 1
    28   13   14 2
    29   14   28 1
    30   14   29 1
    31   15   30 1
    32   16   17 1
    33   17   18 1
    34   17   31 1
    35   17   32 1
    36   18   19 1
    37   18   33 1
    38   18   34 1
@<TRIPOS>MOLECULE
CHEMBL119204__3
   36    38     0     0     0
SMALL
USER_CHARGES

@<TRIPOS>ATOM
      1 C1          0.1740    1.2248   -0.0278 C.ar      1 <0>        -0.1052
      2 C2          1.4188    1.8258   -0.0372 C.ar      1 <0>        -0.1090
      3 C3          2.5661    1.0477   -0.0090 C.ar      1 <0>         0.0665
      4 C4          2.4609   -0.3379    0.0309 C.ar      1 <0>         0.0577
      5 C5          1.2092   -0.9344    0.0390 C.ar      1 <0>        -0.1035
      6 C6          0.0694   -0.1528    0.0093 C.ar      1 <0>        -0.1068
      7 C7         -1.2896   -0.8040    0.0179 C.3       1 <0>        -0.0687
      8 C8         -1.8025   -0.9327   -1.4178 C.3       1 <0>        -0.1141
      9 C9         -0.9104   -1.9040   -2.1956 C.3       1 <0>         0.0685
     10 N1         -1.5774   -2.2807   -3.4433 N.2       1 <0>        -0.5651
     11 C10        -2.8752   -2.3847   -3.5039 C.2       1 <0>         0.5825
     12 N2         -3.6594   -2.1486   -2.4247 N.pl3     1 <0>        -0.5960
     13 C11        -3.2129   -1.4667   -1.4041 C.cat     1 <0>         0.5597
     14 N3         -4.0176   -1.2389   -0.3317 N.pl3     1 <0>        -0.7545
     15 N4         -3.4654   -2.7441   -4.6977 N.pl3     1 <0>        -0.8222
     16 O1          3.5742   -1.1201    0.0668 O.3       1 <0>        -0.3047
     17 C12         4.8073   -0.5026   -0.3180 C.3       1 <0>         0.0195
     18 C13         4.9033    0.8583    0.3849 C.3       1 <0>         0.0181
     19 O2          3.7849    1.6535   -0.0230 O.3       1 <0>        -0.3033
     20 H1         -0.7184    1.8330   -0.0450 H         1 <0>         0.1333
     21 H2          1.4979    2.9025   -0.0669 H         1 <0>         0.1412
     22 H3          1.1247   -2.0107    0.0678 H         1 <0>         0.1372
     23 H4         -1.2152   -1.7943    0.4673 H         1 <0>         0.0982
     24 H5         -1.9816   -0.1931    0.5975 H         1 <0>         0.0903
     25 H6         -1.7872    0.0448   -1.8997 H         1 <0>         0.1553
     26 H7          0.0406   -1.4223   -2.4226 H         1 <0>         0.1344
     27 H8         -0.7327   -2.7958   -1.5945 H         1 <0>         0.0958
     28 H9         -3.7150   -0.6636    0.3883 H         1 <0>         0.4508
     29 H10        -4.8942   -1.6518   -0.2867 H         1 <0>         0.4331
     30 H11        -2.9156   -2.9157   -5.4782 H         1 <0>         0.4393
     31 H12        -4.4302   -2.8251   -4.7567 H         1 <0>         0.4157
     32 H13         5.6439   -1.1324   -0.0155 H         1 <0>         0.1293
     33 H14         4.8255   -0.3602   -1.3985 H         1 <0>         0.0827
     34 H15         4.8789    0.7164    1.4654 H         1 <0>         0.0830
     35 H16         5.8309    1.3546    0.0997 H         1 <0>         0.1297
     36 H17        -4.5667   -2.4915   -2.4096 H         1 <0>         0.4313
@<TRIPOS>BOND
     1    1    6 ar
     2    1    2 ar
     3    1   20 1
     4    2    3 ar
     5    2   21 1
     6    3   19 1
     7    3    4 ar
     8    4    5 ar
     9    4   16 1
    10    5    6 ar
    11    5   22 1
    12    6    7 1
    13    7    8 1
    14    7   23 1
    15    7   24 1
    16    8   13 1
    17    8    9 1
    18    8   25 1
    19    9   10 1
    20    9   26 1
    21    9   27 1
    22   10   11 2
    23   11   12 1
    24   11   15 1
    25   12   13 2
    26   12   36 1
    27   13   14 1
    28   14   28 1
    29   14   29 1
    30   15   30 1
    31   15   31 1
    32   16   17 1
    33   17   18 1
    34   17   32 1
    35   17   33 1
    36   18   19 1
    37   18   34 1
    38   18   35 1
@<TRIPOS>MOLECULE
CHEMBL331292
   42    43     0     0     0
SMALL
USER_CHARGES

@<TRIPOS>ATOM
      1 C1         -0.0173    1.4248    0.0099 C.3       1 <0>         0.0215
      2 O1          0.0021   -0.0041    0.0020 O.3       1 <0>        -0.2954
      3 C2         -1.2011   -0.6379    0.0101 C.ar      1 <0>         0.1619
      4 C3         -2.3748    0.1005    0.0195 C.ar      1 <0>        -0.2236
      5 C4         -3.5982   -0.5428    0.0277 C.ar      1 <0>        -0.0456
      6 C5         -3.6572   -1.9238    0.0266 C.ar      1 <0>        -0.2521
      7 C6         -2.4882   -2.6696    0.0172 C.ar      1 <0>         0.1576
      8 C7         -1.2561   -2.0266    0.0032 C.ar      1 <0>         0.0381
      9 O2         -0.1065   -2.7549   -0.0117 O.3       1 <0>        -0.3128
     10 C8          0.4536   -3.1089    1.2544 C.3       1 <0>         0.0345
     11 O3         -2.5472   -4.0282    0.0166 O.3       1 <0>        -0.2945
     12 C9         -3.8474   -4.6211    0.0259 C.3       1 <0>         0.0250
     13 C10        -4.8712    0.2637    0.0384 C.3       1 <0>        -0.0694
     14 C11        -5.3128    0.5387   -1.4005 C.3       1 <0>        -0.1021
     15 C12        -6.5559    1.4399   -1.3972 C.3       1 <0>         0.1250
     16 N1         -7.6951    0.6610   -0.8848 N.pl3     1 <0>        -0.7837
     17 C13        -7.9421   -0.5754   -1.4603 C.2       1 <0>         0.6032
     18 N2         -6.8366   -1.3977   -1.6654 N.pl3     1 <0>        -0.6494
     19 C14        -5.6735   -0.7654   -2.0823 C.cat     1 <0>         0.5723
     20 N3         -4.9301   -1.2674   -3.0127 N.pl3     1 <0>        -0.6763
     21 N4         -9.1450   -0.9491   -1.7916 N.2       1 <0>        -0.6799
     22 H1          1.0053    1.8021    0.0021 H         1 <0>         0.1106
     23 H2         -0.5445    1.7859   -0.8732 H         1 <0>         0.0601
     24 H3         -0.5275    1.7763    0.9067 H         1 <0>         0.0616
     25 H4         -2.3329    1.1797    0.0207 H         1 <0>         0.1437
     26 H5         -4.6151   -2.4227    0.0334 H         1 <0>         0.1269
     27 H6          1.3650   -3.6864    1.0998 H         1 <0>         0.1003
     28 H7          0.6878   -2.2033    1.8141 H         1 <0>         0.0486
     29 H8         -0.2648   -3.7070    1.8151 H         1 <0>         0.0473
     30 H9         -4.3978   -4.3036   -0.8597 H         1 <0>         0.0470
     31 H10        -3.7517   -5.7069    0.0243 H         1 <0>         0.1122
     32 H11        -4.3845   -4.3050    0.9202 H         1 <0>         0.0610
     33 H12        -5.6506   -0.2944    0.5572 H         1 <0>         0.0976
     34 H13        -4.6980    1.2092    0.5523 H         1 <0>         0.1198
     35 H14        -4.5053    1.0274   -1.9456 H         1 <0>         0.1423
     36 H15        -6.3819    2.3017   -0.7529 H         1 <0>         0.1251
     37 H16        -6.7682    1.7748   -2.4125 H         1 <0>         0.0885
     38 H17        -4.1216   -0.8079   -3.2883 H         1 <0>         0.4555
     39 H18        -5.1807   -2.1038   -3.4353 H         1 <0>         0.4396
     40 H19        -9.8970   -0.3561   -1.6369 H         1 <0>         0.3804
     41 H20        -8.2540    1.0017   -0.1689 H         1 <0>         0.4287
     42 H21        -6.8772   -2.3566   -1.5248 H         1 <0>         0.4487
@<TRIPOS>BOND
     1    1    2 1
     2    1   22 1
     3    1   23 1
     4    1   24 1
     5    2    3 1
     6    3    8 ar
     7    3    4 ar
     8    4    5 ar
     9    4   25 1
    10    5    6 ar
    11    5   13 1
    12    6    7 ar
    13    6   26 1
    14    7    8 ar
    15    7   11 1
    16    8    9 1
    17    9   10 1
    18   10   27 1
    19   10   28 1
    20   10   29 1
    21   11   12 1
    22   12   30 1
    23   12   31 1
    24   12   32 1
    25   13   14 1
    26   13   33 1
    27   13   34 1
    28   14   19 1
    29   14   15 1
    30   14   35 1
    31   15   16 1
    32   15   36 1
    33   15   37 1
    34   16   17 1
    35   16   41 1
    36   17   18 1
    37   17   21 2
    38   18   19 1
    39   18   42 1
    40   19   20 2
    41   20   38 1
    42   20   39 1
    43   21   40 1
@<TRIPOS>MOLECULE
CHEMBL331292__1
   42    43     0     0     0
SMALL
USER_CHARGES

@<TRIPOS>ATOM
      1 C1         -0.0173    1.4248    0.0099 C.3       1 <0>         0.0211
      2 O1          0.0021   -0.0041    0.0020 O.3       1 <0>        -0.2951
      3 C2         -1.2011   -0.6379    0.0101 C.ar      1 <0>         0.1618
      4 C3         -2.3748    0.1005    0.0195 C.ar      1 <0>        -0.2224
      5 C4         -3.5982   -0.5428    0.0277 C.ar      1 <0>        -0.0449
      6 C5         -3.6572   -1.9238    0.0266 C.ar      1 <0>        -0.2473
      7 C6         -2.4882   -2.6696    0.0172 C.ar      1 <0>         0.1563
      8 C7         -1.2561   -2.0266    0.0032 C.ar      1 <0>         0.0385
      9 O2         -0.1065   -2.7549   -0.0117 O.3       1 <0>        -0.3126
     10 C8          0.4536   -3.1089    1.2544 C.3       1 <0>         0.0345
     11 O3         -2.5472   -4.0282    0.0166 O.3       1 <0>        -0.2943
     12 C9         -3.8474   -4.6211    0.0259 C.3       1 <0>         0.0264
     13 C10        -4.8712    0.2637    0.0384 C.3       1 <0>        -0.0718
     14 C11        -5.3128    0.5387   -1.4005 C.3       1 <0>        -0.1100
     15 C12        -6.5425    1.4510   -1.3937 C.3       1 <0>         0.0660
     16 N1         -7.7121    0.6837   -0.9619 N.2       1 <0>        -0.5650
     17 C13        -7.8304   -0.5801   -1.2575 C.2       1 <0>         0.5846
     18 N2         -6.8834   -1.2361   -1.9705 N.pl3     1 <0>        -0.5995
     19 C14        -5.6709   -0.7613   -2.0759 C.cat     1 <0>         0.5594
     20 N3         -4.7340   -1.4377   -2.7929 N.pl3     1 <0>        -0.7453
     21 N4         -8.9488   -1.2674   -0.8338 N.pl3     1 <0>        -0.8224
     22 H1          1.0053    1.8021    0.0021 H         1 <0>         0.1108
     23 H2         -0.5445    1.7859   -0.8732 H         1 <0>         0.0605
     24 H3         -0.5275    1.7763    0.9067 H         1 <0>         0.0618
     25 H4         -2.3329    1.1797    0.0207 H         1 <0>         0.1442
     26 H5         -4.6151   -2.4227    0.0334 H         1 <0>         0.1254
     27 H6          0.6878   -2.2033    1.8141 H         1 <0>         0.0487
     28 H7         -0.2648   -3.7070    1.8151 H         1 <0>         0.0470
     29 H8          1.3650   -3.6864    1.0998 H         1 <0>         0.1003
     30 H9         -3.7517   -5.7069    0.0243 H         1 <0>         0.1113
     31 H10        -4.3845   -4.3050    0.9202 H         1 <0>         0.0595
     32 H11        -4.3978   -4.3036   -0.8597 H         1 <0>         0.0464
     33 H12        -5.6506   -0.2944    0.5572 H         1 <0>         0.0909
     34 H13        -4.6980    1.2092    0.5523 H         1 <0>         0.1225
     35 H14        -4.5014    1.0215   -1.9452 H         1 <0>         0.1490
     36 H15        -6.3768    2.2799   -0.7055 H         1 <0>         0.1360
     37 H16        -6.7127    1.8396   -2.3978 H         1 <0>         0.0983
     38 H17        -3.8340   -1.0841   -2.8705 H         1 <0>         0.4522
     39 H18        -4.9656   -2.2738   -3.2268 H         1 <0>         0.4318
     40 H19        -9.6346   -0.8098   -0.3228 H         1 <0>         0.4395
     41 H20        -9.0494   -2.2084   -1.0469 H         1 <0>         0.4154
     42 H21        -7.1091   -2.0713   -2.4091 H         1 <0>         0.4304
@<TRIPOS>BOND
     1    1    2 1
     2    1   22 1
     3    1   23 1
     4    1   24 1
     5    2    3 1
     6    3    8 ar
     7    3    4 ar
     8    4    5 ar
     9    4   25 1
    10    5    6 ar
    11    5   13 1
    12    6    7 ar
    13    6   26 1
    14    7    8 ar
    15    7   11 1
    16    8    9 1
    17    9   10 1
    18   10   27 1
    19   10   28 1
    20   10   29 1
    21   11   12 1
    22   12   30 1
    23   12   31 1
    24   12   32 1
    25   13   14 1
    26   13   33 1
    27   13   34 1
    28   14   19 1
    29   14   15 1
    30   14   35 1
    31   15   16 1
    32   15   36 1
    33   15   37 1
    34   16   17 2
    35   17   18 1
    36   17   21 1
    37   18   19 2
    38   18   42 1
    39   19   20 1
    40   20   38 1
    41   20   39 1
    42   21   40 1
    43   21   41 1
@<TRIPOS>MOLECULE
CHEMBL331292__2
   42    43     0     0     0
SMALL
USER_CHARGES

@<TRIPOS>ATOM
      1 C1         -0.0173    1.4248    0.0099 C.3       1 <0>         0.0258
      2 O1          0.0021   -0.0041    0.0020 O.3       1 <0>        -0.2946
      3 C2         -1.2011   -0.6379    0.0101 C.ar      1 <0>         0.1568
      4 C3         -2.3748    0.1005    0.0195 C.ar      1 <0>        -0.2515
      5 C4         -3.5982   -0.5428    0.0277 C.ar      1 <0>        -0.0448
      6 C5         -3.6572   -1.9238    0.0266 C.ar      1 <0>        -0.2235
      7 C6         -2.4882   -2.6696    0.0172 C.ar      1 <0>         0.1620
      8 C7         -1.2561   -2.0266    0.0032 C.ar      1 <0>         0.0379
      9 O2         -0.1065   -2.7549   -0.0117 O.3       1 <0>        -0.3130
     10 C8          0.4536   -3.1089    1.2544 C.3       1 <0>         0.0345
     11 O3         -2.5472   -4.0282    0.0166 O.3       1 <0>        -0.2954
     12 C9         -3.8474   -4.6211    0.0259 C.3       1 <0>         0.0215
     13 C10        -4.8712    0.2637    0.0384 C.3       1 <0>        -0.0696
     14 C11        -5.3128    0.5387   -1.4005 C.3       1 <0>        -0.1028
     15 C12        -6.6587    1.2777   -1.3967 C.3       1 <0>         0.1311
     16 N1         -6.4397    2.6428   -0.8912 N.pl3     1 <0>        -0.7351
     17 C13        -5.4290    3.3916   -1.4733 C.2       1 <0>         0.6086
     18 N2         -4.2138    2.7424   -1.6790 N.pl3     1 <0>        -0.6998
     19 C14        -4.2898    1.4188   -2.0895 C.cat     1 <0>         0.5647
     20 N3         -3.5205    0.9566   -3.0194 N.pl3     1 <0>        -0.6805
     21 N4         -5.6063    4.6371   -1.8106 N.2       1 <0>        -0.6629
     22 H1          1.0053    1.8021    0.0021 H         1 <0>         0.1118
     23 H2         -0.5445    1.7859   -0.8732 H         1 <0>         0.0456
     24 H3         -0.5275    1.7763    0.9067 H         1 <0>         0.0608
     25 H4         -2.3329    1.1797    0.0207 H         1 <0>         0.1259
     26 H5         -4.6151   -2.4227    0.0334 H         1 <0>         0.1440
     27 H6          1.3650   -3.6864    1.0998 H         1 <0>         0.1004
     28 H7          0.6878   -2.2033    1.8141 H         1 <0>         0.0471
     29 H8         -0.2648   -3.7070    1.8151 H         1 <0>         0.0488
     30 H9         -4.3978   -4.3036   -0.8597 H         1 <0>         0.0602
     31 H10        -3.7517   -5.7069    0.0243 H         1 <0>         0.1107
     32 H11        -4.3845   -4.3050    0.9202 H         1 <0>         0.0618
     33 H12        -5.6506   -0.2944    0.5572 H         1 <0>         0.1204
     34 H13        -4.6980    1.2092    0.5523 H         1 <0>         0.0979
     35 H14        -5.4113   -0.4027   -1.9410 H         1 <0>         0.1419
     36 H15        -7.0552    1.3218   -2.4111 H         1 <0>         0.0903
     37 H16        -7.3616    0.7552   -0.7479 H         1 <0>         0.1304
     38 H17        -3.5910    0.0277   -3.2900 H         1 <0>         0.4537
     39 H18        -2.8727    1.5384   -3.4467 H         1 <0>         0.4372
     40 H19        -4.8812    5.1376   -2.2164 H         1 <0>         0.3648
     41 H20        -6.9843    3.0060   -0.1755 H         1 <0>         0.4366
     42 H21        -3.3638    3.1896   -1.5435 H         1 <0>         0.4401
@<TRIPOS>BOND
     1    1    2 1
     2    1   22 1
     3    1   23 1
     4    1   24 1
     5    2    3 1
     6    3    8 ar
     7    3    4 ar
     8    4    5 ar
     9    4   25 1
    10    5    6 ar
    11    5   13 1
    12    6    7 ar
    13    6   26 1
    14    7    8 ar
    15    7   11 1
    16    8    9 1
    17    9   10 1
    18   10   27 1
    19   10   28 1
    20   10   29 1
    21   11   12 1
    22   12   30 1
    23   12   31 1
    24   12   32 1
    25   13   14 1
    26   13   33 1
    27   13   34 1
    28   14   19 1
    29   14   15 1
    30   14   35 1
    31   15   16 1
    32   15   36 1
    33   15   37 1
    34   16   17 1
    35   16   41 1
    36   17   18 1
    37   17   21 2
    38   18   19 1
    39   18   42 1
    40   19   20 2
    41   20   38 1
    42   20   39 1
    43   21   40 1
@<TRIPOS>MOLECULE
CHEMBL331292__3
   42    43     0     0     0
SMALL
USER_CHARGES

@<TRIPOS>ATOM
      1 C1          0.0396    0.9688   -0.1131 C.3       1 <0>         0.0238
      2 O1         -0.0678   -0.4557   -0.0771 O.3       1 <0>        -0.2965
      3 C2         -1.3220   -0.9791   -0.0254 C.ar      1 <0>         0.1567
      4 C3         -2.4251   -0.1390   -0.0156 C.ar      1 <0>        -0.2282
      5 C4         -3.7002   -0.6700    0.0369 C.ar      1 <0>        -0.0322
      6 C5         -3.8813   -2.0397    0.0797 C.ar      1 <0>        -0.2253
      7 C6         -2.7835   -2.8868    0.0702 C.ar      1 <0>         0.1578
      8 C7         -1.4999   -2.3570    0.0117 C.ar      1 <0>         0.0413
      9 O2         -0.4200   -3.1851   -0.0035 O.3       1 <0>        -0.3122
     10 C8          0.1350   -3.5507    1.2616 C.3       1 <0>         0.0350
     11 O3         -2.9626   -4.2342    0.1128 O.3       1 <0>        -0.2963
     12 C9         -4.3097   -4.7082    0.1663 C.3       1 <0>         0.0228
     13 C10        -4.8962    0.2468    0.0479 C.3       1 <0>        -0.0749
     14 C11        -5.2555    0.6337   -1.3881 C.3       1 <0>        -0.1137
     15 C12        -5.7240   -0.6080   -2.1515 C.3       1 <0>         0.0682
     16 N1         -6.3725   -0.1944   -3.3972 N.2       1 <0>        -0.5640
     17 C13        -7.0535    0.9150   -3.4613 C.2       1 <0>         0.5827
     18 N2         -7.1890    1.7303   -2.3878 N.pl3     1 <0>        -0.5950
     19 C14        -6.3701    1.6494   -1.3734 C.cat     1 <0>         0.5597
     20 N3         -6.5224    2.4791   -0.3066 N.pl3     1 <0>        -0.7547
     21 N4         -7.6513    1.2685   -4.6531 N.pl3     1 <0>        -0.8214
     22 H1          1.0912    1.2530   -0.1528 H         1 <0>         0.1085
     23 H2         -0.4733    1.3497   -0.9962 H         1 <0>         0.0571
     24 H3         -0.4170    1.3904    0.7824 H         1 <0>         0.0581
     25 H4         -2.2878    0.9318   -0.0486 H         1 <0>         0.1358
     26 H5         -4.8792   -2.4507    0.1210 H         1 <0>         0.1380
     27 H6          0.4611   -2.6538    1.7882 H         1 <0>         0.0466
     28 H7         -0.6207   -4.0657    1.8547 H         1 <0>         0.0470
     29 H8          0.9880   -4.2115    1.1068 H         1 <0>         0.0987
     30 H9         -4.3106   -5.7977    0.1965 H         1 <0>         0.1087
     31 H10        -4.7963   -4.3195    1.0609 H         1 <0>         0.0584
     32 H11        -4.8497   -4.3687   -0.7176 H         1 <0>         0.0591
     33 H12        -5.7415   -0.2642    0.5088 H         1 <0>         0.1006
     34 H13        -4.6600    1.1453    0.6180 H         1 <0>         0.0915
     35 H14        -4.3811    1.0587   -1.8811 H         1 <0>         0.1556
     36 H15        -4.8657   -1.2397   -2.3805 H         1 <0>         0.1356
     37 H16        -6.4334   -1.1651   -1.5396 H         1 <0>         0.0952
     38 H17        -5.8663    2.4759    0.4079 H         1 <0>         0.4504
     39 H18        -7.2871    3.0741   -0.2601 H         1 <0>         0.4336
     40 H19        -7.5620    0.6941   -5.4296 H         1 <0>         0.4398
     41 H20        -8.1611    2.0915   -4.7147 H         1 <0>         0.4160
     42 H21        -7.9054    2.3840   -2.3721 H         1 <0>         0.4319
@<TRIPOS>BOND
     1    1    2 1
     2    1   22 1
     3    1   23 1
     4    1   24 1
     5    2    3 1
     6    3    8 ar
     7    3    4 ar
     8    4    5 ar
     9    4   25 1
    10    5    6 ar
    11    5   13 1
    12    6    7 ar
    13    6   26 1
    14    7    8 ar
    15    7   11 1
    16    8    9 1
    17    9   10 1
    18   10   27 1
    19   10   28 1
    20   10   29 1
    21   11   12 1
    22   12   30 1
    23   12   31 1
    24   12   32 1
    25   13   14 1
    26   13   33 1
    27   13   34 1
    28   14   19 1
    29   14   15 1
    30   14   35 1
    31   15   16 1
    32   15   36 1
    33   15   37 1
    34   16   17 2
    35   17   18 1
    36   17   21 1
    37   18   19 2
    38   18   42 1
    39   19   20 1
    40   20   38 1
    41   20   39 1
    42   21   40 1
    43   21   41 1
@<TRIPOS>MOLECULE
CHEMBL251427
   35    37     0     0     0
SMALL
USER_CHARGES

@<TRIPOS>ATOM
      1 C1         -0.0117    1.3779    0.0389 C.ar      1 <0>        -0.1231
      2 C2          1.1764    2.0850    0.0206 C.ar      1 <0>        -0.0778
      3 C3          2.3819    1.4106   -0.0150 C.ar      1 <0>        -0.1416
      4 C4          2.3998    0.0260   -0.0324 C.ar      1 <0>         0.1136
      5 C5          1.2097   -0.6809   -0.0141 C.ar      1 <0>        -0.1391
      6 C6          0.0050   -0.0041    0.0216 C.ar      1 <0>        -0.0794
      7 C7          1.2275   -2.1877   -0.0335 C.3       1 <0>         0.1051
      8 O1         -0.1068   -2.6816    0.0997 O.3       1 <0>        -0.3114
      9 C8         -0.2578   -4.0254    0.2143 C.ar      1 <0>         0.2242
     10 C9          0.8485   -4.8463    0.3116 C.ar      1 <0>        -0.2209
     11 C10         0.7014   -6.2227    0.4292 C.ar      1 <0>         0.0226
     12 C11        -0.5348   -6.8000    0.4519 C.ar      1 <0>        -0.1815
     13 C12        -1.6800   -6.0001    0.3560 C.ar      1 <0>         0.2353
     14 C13        -1.5402   -4.5955    0.2412 C.ar      1 <0>        -0.2209
     15 C14        -2.7127   -3.8084    0.1510 C.ar      1 <0>         0.5743
     16 N1         -3.8869   -4.4226    0.1837 N.ar      1 <0>        -0.5960
     17 C15        -3.9747   -5.7448    0.2981 C.ar      1 <0>         0.6931
     18 N2         -2.9145   -6.5265    0.3738 N.ar      1 <0>        -0.5855
     19 N3         -5.2295   -6.3256    0.3265 N.pl3     1 <0>        -0.7874
     20 N4         -2.6358   -2.4371    0.0326 N.pl3     1 <0>        -0.7724
     21 F1          3.5779   -0.6344   -0.0677 F         1 <0>        -0.1320
     22 H1         -0.9533    1.9058    0.0712 H         1 <0>         0.1374
     23 H2          1.1622    3.1648    0.0338 H         1 <0>         0.1420
     24 H3          3.3098    1.9631   -0.0296 H         1 <0>         0.1462
     25 H4         -0.9236   -0.5554    0.0362 H         1 <0>         0.1246
     26 H5          1.6506   -2.5339   -0.9764 H         1 <0>         0.0987
     27 H6          1.8350   -2.5545    0.7938 H         1 <0>         0.0968
     28 H7          1.8380   -4.4139    0.2957 H         1 <0>         0.1571
     29 H8          1.5801   -6.8462    0.5036 H         1 <0>         0.1601
     30 H9         -0.6297   -7.8720    0.5432 H         1 <0>         0.1597
     31 H10        -6.0225   -5.7705    0.2635 H         1 <0>         0.4450
     32 H11        -5.3167   -7.2882    0.4093 H         1 <0>         0.4308
     33 H12        -1.8414   -2.0266   -0.3434 H         1 <0>         0.4317
     34 H13        -3.3759   -1.8827    0.3253 H         1 <0>         0.4284
     35 H14        -3.0281   -7.4864    0.4549 H         1 <0>         0.4423
@<TRIPOS>BOND
     1    1    6 ar
     2    1    2 ar
     3    1   22 1
     4    2    3 ar
     5    2   23 1
     6    3    4 ar
     7    3   24 1
     8    4    5 ar
     9    4   21 1
    10    5    6 ar
    11    5    7 1
    12    6   25 1
    13    7    8 1
    14    7   26 1
    15    7   27 1
    16    8    9 1
    17    9   14 ar
    18    9   10 ar
    19   10   11 ar
    20   10   28 1
    21   11   12 ar
    22   11   29 1
    23   12   13 ar
    24   12   30 1
    25   13   18 ar
    26   13   14 ar
    27   14   15 ar
    28   15   16 ar
    29   15   20 1
    30   16   17 ar
    31   17   18 ar
    32   17   19 1
    33   18   35 1
    34   19   31 1
    35   19   32 1
    36   20   33 1
    37   20   34 1
@<TRIPOS>MOLECULE
CHEMBL7571
   37    38     0     0     0
SMALL
USER_CHARGES

@<TRIPOS>ATOM
      1 C1         -0.0187    1.5258    0.0104 C.3       1 <0>        -0.1491
      2 C2          0.0021   -0.0041    0.0020 C.3       1 <0>        -0.0614
      3 C3          0.7421   -0.5109    1.2415 C.3       1 <0>        -0.1520
      4 C4         -1.4333   -0.5336    0.0129 C.3       1 <0>        -0.1490
      5 C5          0.7182   -0.4975   -1.2568 C.3       1 <0>        -0.0785
      6 C6          0.7641   -2.0300   -1.2563 C.3       1 <0>        -0.1211
      7 C7          1.2682   -2.5000   -2.6200 C.3       1 <0>        -0.1016
      8 C8          2.5428   -1.7878   -2.9840 C.ar      1 <0>         0.2387
      9 C9          2.9425   -0.6260   -2.3704 C.ar      1 <0>        -0.2188
     10 C10         4.1415   -0.0301   -2.7818 C.ar      1 <0>         0.5301
     11 N1          4.8546   -0.6043   -3.7435 N.ar      1 <0>        -0.5774
     12 C11         4.4377   -1.7276   -4.3079 C.ar      1 <0>         0.6651
     13 N2          3.3079   -2.3093   -3.9399 N.ar      1 <0>        -0.5758
     14 N3          5.2016   -2.3061   -5.3065 N.pl3     1 <0>        -0.7932
     15 N4          4.5781    1.1451   -2.1924 N.pl3     1 <0>        -0.7784
     16 C12         2.1526    0.0294   -1.2715 C.3       1 <0>        -0.0765
     17 H1          1.0039    1.9031    0.0027 H         1 <0>         0.0547
     18 H2         -0.5459    1.8868   -0.8726 H         1 <0>         0.0582
     19 H3         -0.5289    1.8773    0.9072 H         1 <0>         0.0630
     20 H4          0.2319   -0.1594    2.1383 H         1 <0>         0.0626
     21 H5          0.7568   -1.6008    1.2356 H         1 <0>         0.0598
     22 H6          1.7647   -0.1336    1.2338 H         1 <0>         0.0562
     23 H7         -1.9605   -0.1726   -0.8702 H         1 <0>         0.0581
     24 H8         -1.4185   -1.6235    0.0069 H         1 <0>         0.0600
     25 H9         -1.9435   -0.1821    0.9097 H         1 <0>         0.0624
     26 H10         0.1890   -0.1440   -2.1417 H         1 <0>         0.0848
     27 H11         1.4420   -2.3759   -0.4761 H         1 <0>         0.0831
     28 H12        -0.2357   -2.4262   -1.0790 H         1 <0>         0.1005
     29 H13         1.4527   -3.5737   -2.5855 H         1 <0>         0.1098
     30 H14         0.5107   -2.2917   -3.3756 H         1 <0>         0.1189
     31 H15         6.0317   -1.8889   -5.5853 H         1 <0>         0.4446
     32 H16         4.9068   -3.1287   -5.7275 H         1 <0>         0.4300
     33 H17         4.0526    1.5600   -1.4905 H         1 <0>         0.4314
     34 H18         5.4093    1.5530   -2.4815 H         1 <0>         0.4283
     35 H19         2.1389    1.1075   -1.4314 H         1 <0>         0.0911
     36 H20         2.6246   -0.1835   -0.3123 H         1 <0>         0.1013
     37 H21         3.0321   -3.1312   -4.3748 H         1 <0>         0.4401
@<TRIPOS>BOND
     1    1    2 1
     2    1   17 1
     3    1   18 1
     4    1   19 1
     5    2    3 1
     6    2    4 1
     7    2    5 1
     8    3   20 1
     9    3   21 1
    10    3   22 1
    11    4   23 1
    12    4   24 1
    13    4   25 1
    14    5   16 1
    15    5    6 1
    16    5   26 1
    17    6    7 1
    18    6   27 1
    19    6   28 1
    20    7    8 1
    21    7   29 1
    22    7   30 1
    23    8   13 ar
    24    8    9 ar
    25    9   10 ar
    26    9   16 1
    27   10   11 ar
    28   10   15 1
    29   11   12 ar
    30   12   13 ar
    31   12   14 1
    32   13   37 1
    33   14   31 1
    34   14   32 1
    35   15   33 1
    36   15   34 1
    37   16   35 1
    38   16   36 1
@<TRIPOS>MOLECULE
CHEMBL7571__1
   37    38     0     0     0
SMALL
USER_CHARGES

@<TRIPOS>ATOM
      1 C1         -0.0187    1.5258    0.0104 C.3       1 <0>        -0.1520
      2 C2          0.0021   -0.0041    0.0020 C.3       1 <0>        -0.0614
      3 C3          0.7421   -0.5109    1.2415 C.3       1 <0>        -0.1491
      4 C4         -1.4333   -0.5336    0.0129 C.3       1 <0>        -0.1490
      5 C5          0.7182   -0.4975   -1.2568 C.3       1 <0>        -0.0785
      6 C6         -0.0053    0.0298   -2.5014 C.3       1 <0>        -0.1211
      7 C7          0.5813   -0.6608   -3.7317 C.3       1 <0>        -0.1016
      8 C8          2.0823   -0.5548   -3.7293 C.ar      1 <0>         0.2388
      9 C9          2.8005   -0.2457   -2.6003 C.ar      1 <0>        -0.2188
     10 C10         4.1963   -0.1770   -2.6930 C.ar      1 <0>         0.5301
     11 N1          4.7808   -0.4066   -3.8629 N.ar      1 <0>        -0.5773
     12 C11         4.0529   -0.6975   -4.9305 C.ar      1 <0>         0.6651
     13 N2          2.7334   -0.7713   -4.8695 N.ar      1 <0>        -0.5758
     14 N3          4.6876   -0.9293   -6.1384 N.pl3     1 <0>        -0.7932
     15 N4          4.9584    0.1275   -1.5769 N.pl3     1 <0>        -0.7785
     16 C12         2.1526    0.0294   -1.2715 C.3       1 <0>        -0.0765
     17 H1          1.0039    1.9031    0.0027 H         1 <0>         0.0562
     18 H2         -0.5459    1.8868   -0.8726 H         1 <0>         0.0598
     19 H3         -0.5289    1.8773    0.9072 H         1 <0>         0.0626
     20 H4          0.2319   -0.1594    2.1383 H         1 <0>         0.0630
     21 H5          0.7568   -1.6008    1.2356 H         1 <0>         0.0582
     22 H6          1.7647   -0.1336    1.2338 H         1 <0>         0.0547
     23 H7         -1.9605   -0.1726   -0.8702 H         1 <0>         0.0600
     24 H8         -1.4185   -1.6235    0.0069 H         1 <0>         0.0581
     25 H9         -1.9435   -0.1821    0.9097 H         1 <0>         0.0624
     26 H10         0.7281   -1.5874   -1.2692 H         1 <0>         0.0848
     27 H11        -1.0697   -0.1937   -2.4285 H         1 <0>         0.1005
     28 H12         0.1411    1.1070   -2.5813 H         1 <0>         0.0831
     29 H13         0.2943   -1.7123   -3.7258 H         1 <0>         0.1189
     30 H14         0.1881   -0.1883   -4.6319 H         1 <0>         0.1098
     31 H15         5.6545   -0.8778   -6.1959 H         1 <0>         0.4446
     32 H16         4.1654   -1.1432   -6.9274 H         1 <0>         0.4300
     33 H17         4.5257    0.2946   -0.7250 H         1 <0>         0.4314
     34 H18         5.9248    0.1736   -1.6474 H         1 <0>         0.4283
     35 H19         2.1436    1.1042   -1.0907 H         1 <0>         0.1013
     36 H20         2.7246   -0.4606   -0.4836 H         1 <0>         0.0911
     37 H21         2.2313   -0.9873   -5.6708 H         1 <0>         0.4401
@<TRIPOS>BOND
     1    1    2 1
     2    1   17 1
     3    1   18 1
     4    1   19 1
     5    2    3 1
     6    2    4 1
     7    2    5 1
     8    3   20 1
     9    3   21 1
    10    3   22 1
    11    4   23 1
    12    4   24 1
    13    4   25 1
    14    5   16 1
    15    5    6 1
    16    5   26 1
    17    6    7 1
    18    6   27 1
    19    6   28 1
    20    7    8 1
    21    7   29 1
    22    7   30 1
    23    8   13 ar
    24    8    9 ar
    25    9   10 ar
    26    9   16 1
    27   10   11 ar
    28   10   15 1
    29   11   12 ar
    30   12   13 ar
    31   12   14 1
    32   13   37 1
    33   14   31 1
    34   14   32 1
    35   15   33 1
    36   15   34 1
    37   16   35 1
    38   16   36 1
@<TRIPOS>MOLECULE
CHEMBL57682
   47    50     0     0     0
SMALL
USER_CHARGES

@<TRIPOS>ATOM
      1 C1          3.3120   -4.3465   -2.6285 C.3       1 <0>         0.0152
      2 O1          2.7021   -3.7611   -1.4764 O.3       1 <0>        -0.2890
      3 C2          2.5078   -2.4153   -1.4973 C.ar      1 <0>         0.1838
      4 C3          2.8910   -1.6770   -2.6053 C.ar      1 <0>        -0.2395
      5 C4          2.6926   -0.3026   -2.6269 C.ar      1 <0>         0.1525
      6 C5          2.1097    0.3329   -1.5382 C.ar      1 <0>        -0.2401
      7 C6          1.7256   -0.4040   -0.4297 C.ar      1 <0>         0.1796
      8 C7          1.9194   -1.7806   -0.4092 C.ar      1 <0>         0.0450
      9 O2          1.5380   -2.5059    0.6775 O.3       1 <0>        -0.3075
     10 C8          2.5053   -2.6772    1.7152 C.3       1 <0>         0.0333
     11 O3          1.1548    0.2184    0.6363 O.3       1 <0>        -0.2893
     12 C9          0.9815    1.6339    0.5447 C.3       1 <0>         0.0178
     13 N1          3.0809    0.4426   -3.7463 N.pl3     1 <0>        -0.3557
     14 C10         2.7776    1.7637   -3.7945 C.2       1 <0>         0.1109
     15 C11         3.1312    2.5294   -4.8569 C.2       1 <0>        -0.1666
     16 C12         3.8240    1.9327   -5.9206 C.2       1 <0>         0.1496
     17 C13         4.2492    2.6638   -7.1049 C.ar      1 <0>        -0.3582
     18 C14         3.9916    4.0374   -7.2674 C.ar      1 <0>         0.5396
     19 N2          4.4126    4.6343   -8.3777 N.ar      1 <0>        -0.6311
     20 C15         5.0621    3.9557   -9.3162 C.ar      1 <0>         0.6345
     21 N3          5.3281    2.6656   -9.2106 N.ar      1 <0>        -0.6076
     22 C16         4.9454    1.9730   -8.1287 C.ar      1 <0>         0.5079
     23 N4          5.2154    0.6691   -8.0230 N.2       1 <0>        -0.6173
     24 C17         4.8604   -0.0637   -6.9757 C.2       1 <0>         0.5504
     25 O4          5.1399   -1.2529   -6.9440 O.2       1 <0>        -0.5358
     26 C18         4.1335    0.5465   -5.8520 C.2       1 <0>        -0.2141
     27 C19         3.7479   -0.1712   -4.7389 C.2       1 <0>         0.1976
     28 N5          5.4765    4.6261  -10.4503 N.pl3     1 <0>        -0.8097
     29 N6          3.3170    4.7484   -6.2965 N.pl3     1 <0>        -0.8716
     30 H1          2.6932   -4.1535   -3.5048 H         1 <0>         0.0651
     31 H2          4.2997   -3.9103   -2.7779 H         1 <0>         0.0644
     32 H3          3.4084   -5.4222   -2.4815 H         1 <0>         0.1143
     33 H4          3.3444   -2.1704   -3.4523 H         1 <0>         0.1542
     34 H5          1.9561    1.4017   -1.5556 H         1 <0>         0.1510
     35 H6          2.7992   -1.7016    2.1026 H         1 <0>         0.0481
     36 H7          2.0736   -3.2725    2.5197 H         1 <0>         0.0997
     37 H8          3.3811   -3.1880    1.3149 H         1 <0>         0.0490
     38 H9          0.5169    2.0030    1.4590 H         1 <0>         0.1124
     39 H10         1.9526    2.1110    0.4125 H         1 <0>         0.0612
     40 H11         0.3430    1.8674   -0.3072 H         1 <0>         0.0622
     41 H12         2.2439    2.2147   -2.9710 H         1 <0>         0.1904
     42 H13         2.8831    3.5802   -4.8835 H         1 <0>         0.1906
     43 H14         3.9774   -1.2241   -4.6671 H         1 <0>         0.2016
     44 H15         5.2915    5.5732  -10.5487 H         1 <0>         0.4141
     45 H16         5.9526    4.1499  -11.1485 H         1 <0>         0.4183
     46 H17         3.6432    4.7515   -5.3830 H         1 <0>         0.4089
     47 H18         2.5164    5.2451   -6.5274 H         1 <0>         0.4103
@<TRIPOS>BOND
     1    1    2 1
     2    1   30 1
     3    1   31 1
     4    1   32 1
     5    2    3 1
     6    3    8 ar
     7    3    4 ar
     8    4    5 ar
     9    4   33 1
    10    5    6 ar
    11    5   13 1
    12    6    7 ar
    13    6   34 1
    14    7    8 ar
    15    7   11 1
    16    8    9 1
    17    9   10 1
    18   10   35 1
    19   10   36 1
    20   10   37 1
    21   11   12 1
    22   12   38 1
    23   12   39 1
    24   12   40 1
    25   13   27 1
    26   13   14 1
    27   14   15 2
    28   14   41 1
    29   15   16 1
    30   15   42 1
    31   16   26 1
    32   16   17 2
    33   17   22 ar
    34   17   18 ar
    35   18   19 ar
    36   18   29 1
    37   19   20 ar
    38   20   21 ar
    39   20   28 1
    40   21   22 ar
    41   22   23 2
    42   23   24 1
    43   24   25 2
    44   24   26 1
    45   26   27 2
    46   27   43 1
    47   28   44 1
    48   28   45 1
    49   29   46 1
    50   29   47 1
@<TRIPOS>MOLECULE
CHEMBL82825
   33    34     0     0     0
SMALL
USER_CHARGES

@<TRIPOS>ATOM
      1 C1         -0.0187    1.5258    0.0104 C.3       1 <0>        -0.1628
      2 C2          0.0021   -0.0041    0.0020 C.3       1 <0>        -0.0839
      3 C3         -1.4313   -0.5344    0.0207 C.3       1 <0>        -0.1079
      4 C4         -2.1606   -0.0265    1.2674 C.3       1 <0>        -0.1020
      5 C5         -1.4067   -0.4742    2.5246 C.3       1 <0>         0.1626
      6 C6          0.0361    0.0110    2.4936 C.3       1 <0>        -0.1262
      7 C7          0.7423   -0.5125    1.2419 C.3       1 <0>        -0.0886
      8 C8          2.1861   -0.0067    1.2194 C.3       1 <0>        -0.1555
      9 N1         -1.4579   -1.9398    2.6074 N.pl3     1 <0>        -0.7756
     10 C9         -2.7065   -2.5386    2.5139 C.2       1 <0>         0.6043
     11 N2         -3.5610   -2.0511    1.5283 N.pl3     1 <0>        -0.6475
     12 C10        -3.5324   -0.6812    1.3047 C.cat     1 <0>         0.5679
     13 N3         -4.6162    0.0024    1.1369 N.pl3     1 <0>        -0.6807
     14 N4         -3.0611   -3.5083    3.3079 N.2       1 <0>        -0.6832
     15 H1          1.0039    1.9031    0.0027 H         1 <0>         0.0716
     16 H2         -0.5459    1.8868   -0.8726 H         1 <0>         0.0605
     17 H3         -0.5289    1.8773    0.9072 H         1 <0>         0.0576
     18 H4          0.5102   -0.3565   -0.8956 H         1 <0>         0.0916
     19 H5         -1.9560   -0.1906   -0.8707 H         1 <0>         0.0820
     20 H6         -1.4138   -1.6242    0.0307 H         1 <0>         0.0846
     21 H7         -2.2565    1.0589    1.2371 H         1 <0>         0.1435
     22 H8         -1.9022   -0.0595    3.4025 H         1 <0>         0.0877
     23 H9          0.0506    1.1009    2.4872 H         1 <0>         0.0964
     24 H10         0.5577   -0.3498    3.3801 H         1 <0>         0.0899
     25 H11         0.7364   -1.6025    1.2488 H         1 <0>         0.0758
     26 H12         2.1892    1.0833    1.2168 H         1 <0>         0.0637
     27 H13         2.7120   -0.3694    2.1027 H         1 <0>         0.0610
     28 H14         2.6857   -0.3737    0.3229 H         1 <0>         0.0622
     29 H15        -4.5673    0.9588    0.9823 H         1 <0>         0.4552
     30 H16        -5.4785   -0.4408    1.1656 H         1 <0>         0.4397
     31 H17        -2.4463   -3.8293    3.9860 H         1 <0>         0.3796
     32 H18        -0.6523   -2.4675    2.7230 H         1 <0>         0.4263
     33 H19        -4.1457   -2.6382    1.0240 H         1 <0>         0.4502
@<TRIPOS>BOND
     1    1    2 1
     2    1   15 1
     3    1   16 1
     4    1   17 1
     5    2    7 1
     6    2    3 1
     7    2   18 1
     8    3    4 1
     9    3   19 1
    10    3   20 1
    11    4   12 1
    12    4    5 1
    13    4   21 1
    14    5    6 1
    15    5    9 1
    16    5   22 1
    17    6    7 1
    18    6   23 1
    19    6   24 1
    20    7    8 1
    21    7   25 1
    22    8   26 1
    23    8   27 1
    24    8   28 1
    25    9   10 1
    26    9   32 1
    27   10   11 1
    28   10   14 2
    29   11   12 1
    30   11   33 1
    31   12   13 2
    32   13   29 1
    33   13   30 1
    34   14   31 1
@<TRIPOS>MOLECULE
CHEMBL82825__1
   33    34     0     0     0
SMALL
USER_CHARGES

@<TRIPOS>ATOM
      1 C1         -0.0187    1.5258    0.0104 C.3       1 <0>        -0.1618
      2 C2          0.0021   -0.0041    0.0020 C.3       1 <0>        -0.0840
      3 C3         -1.4312   -0.5346    0.0216 C.3       1 <0>        -0.1096
      4 C4         -2.1611   -0.0255    1.2678 C.3       1 <0>        -0.1076
      5 C5         -1.4062   -0.4613    2.5256 C.3       1 <0>         0.1006
      6 C6          0.0384    0.0158    2.4928 C.3       1 <0>        -0.0973
      7 C7          0.7424   -0.5127    1.2420 C.3       1 <0>        -0.0865
      8 C8          2.1876   -0.0112    1.2172 C.3       1 <0>        -0.1537
      9 N1         -1.4788   -1.9164    2.6479 N.2       1 <0>        -0.5486
     10 C9         -2.5662   -2.5458    2.2866 C.2       1 <0>         0.5778
     11 N2         -3.6470   -1.8726    1.8193 N.pl3     1 <0>        -0.5980
     12 C10        -3.5295   -0.6748    1.3083 C.cat     1 <0>         0.5535
     13 N3         -4.6186   -0.0218    0.8213 N.pl3     1 <0>        -0.7515
     14 N4         -2.6151   -3.9211    2.3819 N.pl3     1 <0>        -0.8215
     15 H1          1.0039    1.9031    0.0027 H         1 <0>         0.0722
     16 H2         -0.5459    1.8868   -0.8726 H         1 <0>         0.0591
     17 H3         -0.5289    1.8773    0.9072 H         1 <0>         0.0574
     18 H4          0.5099   -0.3566   -0.8957 H         1 <0>         0.0902
     19 H5         -1.9559   -0.1920   -0.8702 H         1 <0>         0.0836
     20 H6         -1.4134   -1.6244    0.0327 H         1 <0>         0.0763
     21 H7         -2.2599    1.0593    1.2292 H         1 <0>         0.1495
     22 H8         -1.8980   -0.0269    3.3960 H         1 <0>         0.0909
     23 H9          0.0586    1.1056    2.4851 H         1 <0>         0.0860
     24 H10         0.5583   -0.3463    3.3798 H         1 <0>         0.0899
     25 H11         0.7329   -1.6026    1.2510 H         1 <0>         0.0820
     26 H12         2.1939    1.0788    1.2128 H         1 <0>         0.0611
     27 H13         2.7133   -0.3740    2.1004 H         1 <0>         0.0611
     28 H14         2.6852   -0.3810    0.3207 H         1 <0>         0.0598
     29 H15        -4.5228    0.8668    0.4441 H         1 <0>         0.4521
     30 H16        -5.4911   -0.4446    0.8510 H         1 <0>         0.4324
     31 H17        -1.8473   -4.4118    2.7145 H         1 <0>         0.4391
     32 H18        -3.4172   -4.3974    2.1164 H         1 <0>         0.4154
     33 H19        -4.5227   -2.2873    1.8648 H         1 <0>         0.4300
@<TRIPOS>BOND
     1    1    2 1
     2    1   15 1
     3    1   16 1
     4    1   17 1
     5    2    7 1
     6    2    3 1
     7    2   18 1
     8    3    4 1
     9    3   19 1
    10    3   20 1
    11    4   12 1
    12    4    5 1
    13    4   21 1
    14    5    6 1
    15    5    9 1
    16    5   22 1
    17    6    7 1
    18    6   23 1
    19    6   24 1
    20    7    8 1
    21    7   25 1
    22    8   26 1
    23    8   27 1
    24    8   28 1
    25    9   10 2
    26   10   11 1
    27   10   14 1
    28   11   12 2
    29   11   33 1
    30   12   13 1
    31   13   29 1
    32   13   30 1
    33   14   31 1
    34   14   32 1
@<TRIPOS>MOLECULE
CHEMBL82825__2
   33    34     0     0     0
SMALL
USER_CHARGES

@<TRIPOS>ATOM
      1 C1         -0.3132    1.5289    0.2577 C.3       1 <0>        -0.1609
      2 C2         -0.2982   -0.0009    0.2422 C.3       1 <0>        -0.0828
      3 C3         -1.6767   -0.5292    0.6382 C.3       1 <0>        -0.1123
      4 C4         -2.0499   -0.0222    2.0339 C.3       1 <0>        -0.1012
      5 C5         -0.9914   -0.4731    3.0468 C.3       1 <0>         0.1626
      6 C6          0.3928    0.0100    2.6363 C.3       1 <0>        -0.1259
      7 C7          0.7423   -0.5125    1.2419 C.3       1 <0>        -0.0909
      8 C8          0.7340   -2.0425    1.2516 C.3       1 <0>        -0.1774
      9 N1         -1.0217   -1.9388    3.1384 N.pl3     1 <0>        -0.7788
     10 C9         -2.2518   -2.5356    3.3773 C.2       1 <0>         0.5999
     11 N2         -3.3354   -2.0452    2.6530 N.pl3     1 <0>        -0.6473
     12 C10        -3.3643   -0.6750    2.4315 C.cat     1 <0>         0.5680
     13 N3         -4.4526    0.0105    2.5568 N.pl3     1 <0>        -0.6807
     14 N4         -2.3859   -3.5061    4.2356 N.2       1 <0>        -0.6847
     15 H1          0.6718    1.9047   -0.0195 H         1 <0>         0.0686
     16 H2         -1.0542    1.8923   -0.4543 H         1 <0>         0.0615
     17 H3         -0.5677    1.8797    1.2578 H         1 <0>         0.0580
     18 H4         -0.0459   -0.3526   -0.7582 H         1 <0>         0.0919
     19 H5         -2.4176   -0.1831   -0.0825 H         1 <0>         0.0818
     20 H6         -1.6592   -1.6190    0.6419 H         1 <0>         0.0889
     21 H7         -2.1483    1.0633    2.0314 H         1 <0>         0.1436
     22 H8         -1.2367   -0.0592    4.0249 H         1 <0>         0.0873
     23 H9          0.4072    1.0998    2.6277 H         1 <0>         0.0966
     24 H10         1.1293   -0.3531    3.3531 H         1 <0>         0.0895
     25 H11         1.7308   -0.1536    0.9552 H         1 <0>         0.0898
     26 H12         1.1500   -2.4140    0.3151 H         1 <0>         0.0651
     27 H13         1.3360   -2.4038    2.0853 H         1 <0>         0.0608
     28 H14        -0.2900   -2.3995    1.3613 H         1 <0>         0.0742
     29 H15        -4.4445    0.9670    2.3959 H         1 <0>         0.4552
     30 H16        -5.2776   -0.4315    2.8117 H         1 <0>         0.4397
     31 H17        -1.6144   -3.8291    4.7268 H         1 <0>         0.3789
     32 H18        -0.2152   -2.4679    3.0358 H         1 <0>         0.4310
     33 H19        -4.0336   -2.6306    2.3203 H         1 <0>         0.4500
@<TRIPOS>BOND
     1    1    2 1
     2    1   15 1
     3    1   16 1
     4    1   17 1
     5    2    7 1
     6    2    3 1
     7    2   18 1
     8    3    4 1
     9    3   19 1
    10    3   20 1
    11    4   12 1
    12    4    5 1
    13    4   21 1
    14    5    6 1
    15    5    9 1
    16    5   22 1
    17    6    7 1
    18    6   23 1
    19    6   24 1
    20    7    8 1
    21    7   25 1
    22    8   26 1
    23    8   27 1
    24    8   28 1
    25    9   10 1
    26    9   32 1
    27   10   11 1
    28   10   14 2
    29   11   12 1
    30   11   33 1
    31   12   13 2
    32   13   29 1
    33   13   30 1
    34   14   31 1
@<TRIPOS>MOLECULE
CHEMBL82825__3
   33    34     0     0     0
SMALL
USER_CHARGES

@<TRIPOS>ATOM
      1 C1         -0.2757    1.5297    0.2206 C.3       1 <0>        -0.1600
      2 C2         -0.2607   -0.0001    0.2050 C.3       1 <0>        -0.0835
      3 C3         -1.6526   -0.5282    0.5509 C.3       1 <0>        -0.1140
      4 C4         -2.0772   -0.0207    1.9318 C.3       1 <0>        -0.1069
      5 C5         -1.0557   -0.4605    2.9829 C.3       1 <0>         0.1006
      6 C6          0.3442    0.0142    2.6216 C.3       1 <0>        -0.0980
      7 C7          0.7424   -0.5127    1.2420 C.3       1 <0>        -0.0905
      8 C8          0.7291   -2.0426    1.2547 C.3       1 <0>        -0.1455
      9 N1         -1.1016   -1.9158    3.1161 N.2       1 <0>        -0.5360
     10 C9         -2.2440   -2.5426    3.0118 C.2       1 <0>         0.5668
     11 N2         -3.4016   -1.8665    2.8052 N.pl3     1 <0>        -0.5962
     12 C10        -3.4015   -0.6678    2.2830 C.cat     1 <0>         0.5516
     13 N3         -4.5717   -0.0119    2.0590 N.pl3     1 <0>        -0.7523
     14 N4         -2.2728   -3.9180    3.1133 N.pl3     1 <0>        -0.8225
     15 H1          0.7188    1.9053   -0.0200 H         1 <0>         0.0690
     16 H2         -0.9901    1.8936   -0.5179 H         1 <0>         0.0599
     17 H3         -0.5666    1.8801    1.2109 H         1 <0>         0.0577
     18 H4          0.0277   -0.3515   -0.7857 H         1 <0>         0.0902
     19 H5         -2.3667   -0.1828   -0.1967 H         1 <0>         0.0828
     20 H6         -1.6351   -1.6181    0.5557 H         1 <0>         0.0811
     21 H7         -2.1799    1.0644    1.9187 H         1 <0>         0.1493
     22 H8         -1.3345   -0.0273    3.9434 H         1 <0>         0.0917
     23 H9          0.3644    1.1040    2.6114 H         1 <0>         0.0861
     24 H10         1.0523   -0.3507    3.3655 H         1 <0>         0.0903
     25 H11         1.7414   -0.1571    0.9900 H         1 <0>         0.0852
     26 H12         1.1426   -2.4173    0.3184 H         1 <0>         0.0479
     27 H13         1.3311   -2.4042    2.0883 H         1 <0>         0.0634
     28 H14        -0.2959   -2.3961    1.3664 H         1 <0>         0.0641
     29 H15        -4.5628    0.8773    1.6715 H         1 <0>         0.4518
     30 H16        -5.4152   -0.4333    2.2867 H         1 <0>         0.4322
     31 H17        -1.4503   -4.4107    3.2607 H         1 <0>         0.4386
     32 H18        -3.1154   -4.3924    3.0374 H         1 <0>         0.4151
     33 H19        -4.2446   -2.2799    3.0489 H         1 <0>         0.4299
@<TRIPOS>BOND
     1    1    2 1
     2    1   15 1
     3    1   16 1
     4    1   17 1
     5    2    7 1
     6    2    3 1
     7    2   18 1
     8    3    4 1
     9    3   19 1
    10    3   20 1
    11    4   12 1
    12    4    5 1
    13    4   21 1
    14    5    6 1
    15    5    9 1
    16    5   22 1
    17    6    7 1
    18    6   23 1
    19    6   24 1
    20    7    8 1
    21    7   25 1
    22    8   26 1
    23    8   27 1
    24    8   28 1
    25    9   10 2
    26   10   11 1
    27   10   14 1
    28   11   12 2
    29   11   33 1
    30   12   13 1
    31   13   29 1
    32   13   30 1
    33   14   31 1
    34   14   32 1
@<TRIPOS>MOLECULE
CHEMBL82825__4
   33    34     0     0     0
SMALL
USER_CHARGES

@<TRIPOS>ATOM
      1 C1         -0.0187    1.5258    0.0104 C.3       1 <0>        -0.1644
      2 C2          0.0021   -0.0041    0.0020 C.3       1 <0>        -0.0843
      3 C3         -1.4372   -0.5314   -0.0064 C.3       1 <0>        -0.1307
      4 C4         -2.1402   -0.0487    1.2588 C.3       1 <0>        -0.1157
      5 C5         -1.4087   -0.6294    2.4786 C.3       1 <0>         0.1621
      6 C6          0.0082   -0.0648    2.5123 C.3       1 <0>        -0.1240
      7 C7          0.7418   -0.5072    1.2412 C.3       1 <0>        -0.0864
      8 C8          2.1613    0.0636    1.2506 C.3       1 <0>        -0.1557
      9 N1         -2.1685   -0.2643    3.6795 N.pl3     1 <0>        -0.7792
     10 C9         -3.5211   -0.5844    3.6819 C.2       1 <0>         0.6039
     11 N2         -4.2391   -0.3247    2.5181 N.pl3     1 <0>        -0.6473
     12 C10        -3.5735   -0.5231    1.3120 C.cat     1 <0>         0.5731
     13 N3         -4.1478   -1.0804    0.2973 N.pl3     1 <0>        -0.6815
     14 N4         -4.0928   -1.1061    4.7295 N.2       1 <0>        -0.6833
     15 H1          1.0039    1.9031    0.0027 H         1 <0>         0.0737
     16 H2         -0.5459    1.8868   -0.8726 H         1 <0>         0.0611
     17 H3         -0.5289    1.8773    0.9072 H         1 <0>         0.0567
     18 H4          0.5174   -0.3532   -0.8927 H         1 <0>         0.0946
     19 H5         -1.9609   -0.1514   -0.8836 H         1 <0>         0.0875
     20 H6         -1.4275   -1.6211   -0.0265 H         1 <0>         0.0887
     21 H7         -2.1148    1.0404    1.2972 H         1 <0>         0.1604
     22 H8         -1.3651   -1.7151    2.3930 H         1 <0>         0.0904
     23 H9         -0.0326    1.0237    2.5511 H         1 <0>         0.0864
     24 H10         0.5328   -0.4453    3.3887 H         1 <0>         0.0909
     25 H11         0.7929   -1.5956    1.2141 H         1 <0>         0.0806
     26 H12         2.1150    1.1524    1.2708 H         1 <0>         0.0639
     27 H13         2.6908   -0.2940    2.1337 H         1 <0>         0.0621
     28 H14         2.6894   -0.2610    0.3541 H         1 <0>         0.0641
     29 H15        -3.6568   -1.2047   -0.5300 H         1 <0>         0.4544
     30 H16        -5.0698   -1.3745    0.3629 H         1 <0>         0.4401
     31 H17        -3.5730   -1.2790    5.5301 H         1 <0>         0.3798
     32 H18        -1.7481    0.1777    4.4337 H         1 <0>         0.4278
     33 H19        -5.1597   -0.0202    2.5463 H         1 <0>         0.4504
@<TRIPOS>BOND
     1    1    2 1
     2    1   15 1
     3    1   16 1
     4    1   17 1
     5    2    7 1
     6    2    3 1
     7    2   18 1
     8    3    4 1
     9    3   19 1
    10    3   20 1
    11    4   12 1
    12    4    5 1
    13    4   21 1
    14    5    6 1
    15    5    9 1
    16    5   22 1
    17    6    7 1
    18    6   23 1
    19    6   24 1
    20    7    8 1
    21    7   25 1
    22    8   26 1
    23    8   27 1
    24    8   28 1
    25    9   10 1
    26    9   32 1
    27   10   11 1
    28   10   14 2
    29   11   12 1
    30   11   33 1
    31   12   13 2
    32   13   29 1
    33   13   30 1
    34   14   31 1
@<TRIPOS>MOLECULE
CHEMBL82825__5
   33    34     0     0     0
SMALL
USER_CHARGES

@<TRIPOS>ATOM
      1 C1         -0.0187    1.5258    0.0104 C.3       1 <0>        -0.1637
      2 C2          0.0021   -0.0041    0.0020 C.3       1 <0>        -0.0859
      3 C3         -1.4377   -0.5312   -0.0081 C.3       1 <0>        -0.1140
      4 C4         -2.1380   -0.0513    1.2589 C.3       1 <0>        -0.1263
      5 C5         -1.4082   -0.6278    2.4761 C.3       1 <0>         0.1016
      6 C6          0.0087   -0.0657    2.5136 C.3       1 <0>        -0.0960
      7 C7          0.7418   -0.5069    1.2412 C.3       1 <0>        -0.0901
      8 C8          2.1611    0.0644    1.2504 C.3       1 <0>        -0.1542
      9 N1         -2.1692   -0.3076    3.6790 N.2       1 <0>        -0.5560
     10 C9         -3.4767   -0.3162    3.6309 C.2       1 <0>         0.5820
     11 N2         -4.1538   -0.5792    2.4875 N.pl3     1 <0>        -0.6001
     12 C10        -3.5759   -0.4877    1.3140 C.cat     1 <0>         0.5623
     13 N3         -4.2598   -0.7801    0.1754 N.pl3     1 <0>        -0.7492
     14 N4         -4.1887   -0.0493    4.7818 N.pl3     1 <0>        -0.8216
     15 H1          1.0039    1.9031    0.0027 H         1 <0>         0.0741
     16 H2         -0.5459    1.8868   -0.8726 H         1 <0>         0.0599
     17 H3         -0.5289    1.8773    0.9072 H         1 <0>         0.0558
     18 H4          0.5179   -0.3530   -0.8926 H         1 <0>         0.0939
     19 H5         -1.9618   -0.1481   -0.8837 H         1 <0>         0.0836
     20 H6         -1.4285   -1.6210   -0.0311 H         1 <0>         0.0883
     21 H7         -2.0901    1.0366    1.3065 H         1 <0>         0.1541
     22 H8         -1.3570   -1.7121    2.3775 H         1 <0>         0.0928
     23 H9         -0.0302    1.0229    2.5549 H         1 <0>         0.0807
     24 H10         0.5319   -0.4496    3.3893 H         1 <0>         0.0918
     25 H11         0.7937   -1.5953    1.2136 H         1 <0>         0.0784
     26 H12         2.1144    1.1532    1.2704 H         1 <0>         0.0632
     27 H13         2.6908   -0.2929    2.1335 H         1 <0>         0.0625
     28 H14         2.6892   -0.2602    0.3538 H         1 <0>         0.0626
     29 H15        -3.8203   -0.7083   -0.6863 H         1 <0>         0.4515
     30 H16        -5.1871   -1.0605    0.2251 H         1 <0>         0.4330
     31 H17        -3.7196    0.1408    5.6093 H         1 <0>         0.4393
     32 H18        -5.1586   -0.0516    4.7637 H         1 <0>         0.4155
     33 H19        -5.0864   -0.8410    2.5380 H         1 <0>         0.4302
@<TRIPOS>BOND
     1    1    2 1
     2    1   15 1
     3    1   16 1
     4    1   17 1
     5    2    7 1
     6    2    3 1
     7    2   18 1
     8    3    4 1
     9    3   19 1
    10    3   20 1
    11    4   12 1
    12    4    5 1
    13    4   21 1
    14    5    6 1
    15    5    9 1
    16    5   22 1
    17    6    7 1
    18    6   23 1
    19    6   24 1
    20    7    8 1
    21    7   25 1
    22    8   26 1
    23    8   27 1
    24    8   28 1
    25    9   10 2
    26   10   11 1
    27   10   14 1
    28   11   12 2
    29   11   33 1
    30   12   13 1
    31   13   29 1
    32   13   30 1
    33   14   31 1
    34   14   32 1
@<TRIPOS>MOLECULE
CHEMBL82825__6
   33    34     0     0     0
SMALL
USER_CHARGES

@<TRIPOS>ATOM
      1 C1         -0.0187    1.5258    0.0104 C.3       1 <0>        -0.1622
      2 C2          0.0021   -0.0041    0.0020 C.3       1 <0>        -0.0834
      3 C3         -1.4372   -0.5314   -0.0064 C.3       1 <0>        -0.1330
      4 C4         -2.1402   -0.0487    1.2588 C.3       1 <0>        -0.1158
      5 C5         -1.4087   -0.6294    2.4786 C.3       1 <0>         0.1643
      6 C6          0.0082   -0.0648    2.5123 C.3       1 <0>        -0.1231
      7 C7          0.7418   -0.5072    1.2412 C.3       1 <0>        -0.0883
      8 C8          0.8135   -2.0350    1.2031 C.3       1 <0>        -0.1601
      9 N1         -2.1685   -0.2643    3.6795 N.pl3     1 <0>        -0.7304
     10 C9         -3.5211   -0.5844    3.6819 C.2       1 <0>         0.6092
     11 N2         -4.2391   -0.3247    2.5181 N.pl3     1 <0>        -0.6976
     12 C10        -3.5735   -0.5231    1.3120 C.cat     1 <0>         0.5647
     13 N3         -4.1478   -1.0804    0.2973 N.pl3     1 <0>        -0.6857
     14 N4         -4.0928   -1.1061    4.7295 N.2       1 <0>        -0.6664
     15 H1          1.0039    1.9031    0.0027 H         1 <0>         0.0704
     16 H2         -0.5459    1.8868   -0.8726 H         1 <0>         0.0616
     17 H3         -0.5289    1.8773    0.9072 H         1 <0>         0.0574
     18 H4          0.5174   -0.3532   -0.8927 H         1 <0>         0.0948
     19 H5         -1.9609   -0.1514   -0.8836 H         1 <0>         0.0866
     20 H6         -1.4275   -1.6211   -0.0265 H         1 <0>         0.0899
     21 H7         -2.1148    1.0404    1.2972 H         1 <0>         0.1605
     22 H8         -1.3651   -1.7151    2.3930 H         1 <0>         0.0952
     23 H9         -0.0326    1.0237    2.5511 H         1 <0>         0.0878
     24 H10         0.5328   -0.4453    3.3887 H         1 <0>         0.0939
     25 H11         1.7531   -0.1006    1.2479 H         1 <0>         0.0946
     26 H12         1.3469   -2.3515    0.3067 H         1 <0>         0.0660
     27 H13         1.3408   -2.3961    2.0861 H         1 <0>         0.0656
     28 H14        -0.1959   -2.4459    1.1894 H         1 <0>         0.0518
     29 H15        -3.6568   -1.2047   -0.5300 H         1 <0>         0.4525
     30 H16        -5.0698   -1.3745    0.3629 H         1 <0>         0.4377
     31 H17        -5.0383   -1.3217    4.7091 H         1 <0>         0.3645
     32 H18        -1.7481    0.1777    4.4337 H         1 <0>         0.4355
     33 H19        -5.1597   -0.0202    2.5463 H         1 <0>         0.4415
@<TRIPOS>BOND
     1    1    2 1
     2    1   15 1
     3    1   16 1
     4    1   17 1
     5    2    7 1
     6    2    3 1
     7    2   18 1
     8    3    4 1
     9    3   19 1
    10    3   20 1
    11    4   12 1
    12    4    5 1
    13    4   21 1
    14    5    6 1
    15    5    9 1
    16    5   22 1
    17    6    7 1
    18    6   23 1
    19    6   24 1
    20    7    8 1
    21    7   25 1
    22    8   26 1
    23    8   27 1
    24    8   28 1
    25    9   10 1
    26    9   32 1
    27   10   11 1
    28   10   14 2
    29   11   12 1
    30   11   33 1
    31   12   13 2
    32   13   29 1
    33   13   30 1
    34   14   31 1
@<TRIPOS>MOLECULE
CHEMBL82825__7
   33    34     0     0     0
SMALL
USER_CHARGES

@<TRIPOS>ATOM
      1 C1         -0.0187    1.5258    0.0104 C.3       1 <0>        -0.1615
      2 C2          0.0021   -0.0041    0.0020 C.3       1 <0>        -0.0847
      3 C3         -1.4377   -0.5312   -0.0081 C.3       1 <0>        -0.1165
      4 C4         -2.1380   -0.0513    1.2589 C.3       1 <0>        -0.1259
      5 C5         -1.4082   -0.6278    2.4761 C.3       1 <0>         0.0980
      6 C6          0.0087   -0.0657    2.5136 C.3       1 <0>        -0.0952
      7 C7          0.7418   -0.5069    1.2412 C.3       1 <0>        -0.0928
      8 C8          0.8146   -2.0346    1.2025 C.3       1 <0>        -0.1576
      9 N1         -2.1692   -0.3076    3.6790 N.2       1 <0>        -0.5555
     10 C9         -3.4767   -0.3162    3.6309 C.2       1 <0>         0.5810
     11 N2         -4.1538   -0.5792    2.4875 N.pl3     1 <0>        -0.5999
     12 C10        -3.5759   -0.4877    1.3140 C.cat     1 <0>         0.5619
     13 N3         -4.2598   -0.7801    0.1754 N.pl3     1 <0>        -0.7494
     14 N4         -4.1887   -0.0493    4.7818 N.pl3     1 <0>        -0.8218
     15 H1          1.0039    1.9031    0.0027 H         1 <0>         0.0705
     16 H2         -0.5459    1.8868   -0.8726 H         1 <0>         0.0610
     17 H3         -0.5289    1.8773    0.9072 H         1 <0>         0.0561
     18 H4          0.5179   -0.3530   -0.8926 H         1 <0>         0.0942
     19 H5         -1.9618   -0.1481   -0.8837 H         1 <0>         0.0832
     20 H6         -1.4285   -1.6210   -0.0311 H         1 <0>         0.0902
     21 H7         -2.0901    1.0366    1.3065 H         1 <0>         0.1539
     22 H8         -1.3570   -1.7121    2.3775 H         1 <0>         0.0969
     23 H9         -0.0302    1.0229    2.5549 H         1 <0>         0.0805
     24 H10         0.5319   -0.4496    3.3893 H         1 <0>         0.0920
     25 H11         1.7529   -0.0999    1.2477 H         1 <0>         0.0927
     26 H12         1.3484   -2.3503    0.3061 H         1 <0>         0.0644
     27 H13         1.3419   -2.3957    2.0855 H         1 <0>         0.0647
     28 H14        -0.1946   -2.4463    1.1883 H         1 <0>         0.0503
     29 H15        -3.8203   -0.7083   -0.6863 H         1 <0>         0.4514
     30 H16        -5.1871   -1.0605    0.2251 H         1 <0>         0.4330
     31 H17        -3.7196    0.1408    5.6093 H         1 <0>         0.4393
     32 H18        -5.1586   -0.0516    4.7637 H         1 <0>         0.4154
     33 H19        -5.0864   -0.8410    2.5380 H         1 <0>         0.4301
@<TRIPOS>BOND
     1    1    2 1
     2    1   15 1
     3    1   16 1
     4    1   17 1
     5    2    7 1
     6    2    3 1
     7    2   18 1
     8    3    4 1
     9    3   19 1
    10    3   20 1
    11    4   12 1
    12    4    5 1
    13    4   21 1
    14    5    6 1
    15    5    9 1
    16    5   22 1
    17    6    7 1
    18    6   23 1
    19    6   24 1
    20    7    8 1
    21    7   25 1
    22    8   26 1
    23    8   27 1
    24    8   28 1
    25    9   10 2
    26   10   11 1
    27   10   14 1
    28   11   12 2
    29   11   33 1
    30   12   13 1
    31   13   29 1
    32   13   30 1
    33   14   31 1
    34   14   32 1
@<TRIPOS>MOLECULE
CHEMBL82825__8
   33    34     0     0     0
SMALL
USER_CHARGES

@<TRIPOS>ATOM
      1 C1         -0.0187    1.5258    0.0104 C.3       1 <0>        -0.1573
      2 C2          0.0021   -0.0041    0.0020 C.3       1 <0>        -0.0812
      3 C3         -1.4372   -0.5314   -0.0064 C.3       1 <0>        -0.1345
      4 C4         -1.3971   -2.0566    0.0000 C.3       1 <0>        -0.1110
      5 C5         -0.7076   -2.5240    1.2909 C.3       1 <0>         0.1574
      6 C6          0.7389   -2.0397    1.2742 C.3       1 <0>        -0.1209
      7 C7          0.7418   -0.5072    1.2412 C.3       1 <0>        -0.0895
      8 C8          0.0501    0.0281    2.4965 C.3       1 <0>        -0.1617
      9 N1         -0.7906   -3.9878    1.3452 N.pl3     1 <0>        -0.7792
     10 C9         -2.0552   -4.5458    1.1985 C.2       1 <0>         0.6038
     11 N2         -2.8720   -4.0191    0.2020 N.pl3     1 <0>        -0.6471
     12 C10        -2.7873   -2.6478   -0.0200 C.cat     1 <0>         0.5733
     13 N3         -3.8361   -1.9228   -0.2308 N.pl3     1 <0>        -0.6814
     14 N4         -2.4589   -5.5211    1.9615 N.2       1 <0>        -0.6834
     15 H1          1.0039    1.9031    0.0027 H         1 <0>         0.0677
     16 H2         -0.5459    1.8868   -0.8726 H         1 <0>         0.0606
     17 H3         -0.5289    1.8773    0.9072 H         1 <0>         0.0646
     18 H4          0.5174   -0.3532   -0.8927 H         1 <0>         0.0841
     19 H5         -1.9625   -0.1754    0.8799 H         1 <0>         0.0901
     20 H6         -1.9494   -0.1826   -0.9032 H         1 <0>         0.0871
     21 H7         -0.8379   -2.4104   -0.8661 H         1 <0>         0.1580
     22 H8         -1.2230   -2.0992    2.1523 H         1 <0>         0.0940
     23 H9          1.2514   -2.3872    2.1713 H         1 <0>         0.0914
     24 H10         1.2438   -2.4257    0.3887 H         1 <0>         0.0843
     25 H11         1.7708   -0.1484    1.2179 H         1 <0>         0.0933
     26 H12        -0.9816   -0.3227    2.5205 H         1 <0>         0.0518
     27 H13         0.5761   -0.3295    3.3817 H         1 <0>         0.0635
     28 H14         0.0630    1.1180    2.4818 H         1 <0>         0.0697
     29 H15        -3.7440   -0.9691   -0.3823 H         1 <0>         0.4544
     30 H16        -4.7154   -2.3322   -0.2375 H         1 <0>         0.4402
     31 H17        -1.8729   -5.8731    2.6497 H         1 <0>         0.3798
     32 H18        -0.0029   -4.5384    1.4765 H         1 <0>         0.4277
     33 H19        -3.4715   -4.5812   -0.3134 H         1 <0>         0.4505
@<TRIPOS>BOND
     1    1    2 1
     2    1   15 1
     3    1   16 1
     4    1   17 1
     5    2    7 1
     6    2    3 1
     7    2   18 1
     8    3    4 1
     9    3   19 1
    10    3   20 1
    11    4   12 1
    12    4    5 1
    13    4   21 1
    14    5    6 1
    15    5    9 1
    16    5   22 1
    17    6    7 1
    18    6   23 1
    19    6   24 1
    20    7    8 1
    21    7   25 1
    22    8   26 1
    23    8   27 1
    24    8   28 1
    25    9   10 1
    26    9   32 1
    27   10   11 1
    28   10   14 2
    29   11   12 1
    30   11   33 1
    31   12   13 2
    32   13   29 1
    33   13   30 1
    34   14   31 1
@<TRIPOS>MOLECULE
CHEMBL82825__9
   33    34     0     0     0
SMALL
USER_CHARGES

@<TRIPOS>ATOM
      1 C1         -0.0187    1.5258    0.0104 C.3       1 <0>        -0.1560
      2 C2          0.0021   -0.0041    0.0020 C.3       1 <0>        -0.0830
      3 C3         -1.4377   -0.5312   -0.0081 C.3       1 <0>        -0.1176
      4 C4         -1.3952   -2.0558    0.0022 C.3       1 <0>        -0.1215
      5 C5         -0.7060   -2.5227    1.2880 C.3       1 <0>         0.0969
      6 C6          0.7403   -2.0398    1.2759 C.3       1 <0>        -0.0934
      7 C7          0.7418   -0.5069    1.2412 C.3       1 <0>        -0.0932
      8 C8          0.0499    0.0289    2.4962 C.3       1 <0>        -0.1597
      9 N1         -0.8102   -3.9752    1.3796 N.2       1 <0>        -0.5555
     10 C9         -1.9018   -4.5663    0.9663 C.2       1 <0>         0.5811
     11 N2         -2.9319   -3.8766    0.4202 N.pl3     1 <0>        -0.5997
     12 C10        -2.7696   -2.6633   -0.0500 C.cat     1 <0>         0.5624
     13 N3         -3.8183   -1.9716   -0.5710 N.pl3     1 <0>        -0.7492
     14 N4         -2.0074   -5.9360    1.0911 N.pl3     1 <0>        -0.8218
     15 H1          1.0039    1.9031    0.0027 H         1 <0>         0.0676
     16 H2         -0.5459    1.8868   -0.8726 H         1 <0>         0.0596
     17 H3         -0.5289    1.8773    0.9072 H         1 <0>         0.0642
     18 H4          0.5179   -0.3530   -0.8926 H         1 <0>         0.0825
     19 H5         -1.9649   -0.1736    0.8764 H         1 <0>         0.0902
     20 H6         -1.9481   -0.1852   -0.9070 H         1 <0>         0.0831
     21 H7         -0.8146   -2.4054   -0.8515 H         1 <0>         0.1510
     22 H8         -1.2191   -2.0845    2.1441 H         1 <0>         0.0972
     23 H9          1.2495   -2.3861    2.1752 H         1 <0>         0.0926
     24 H10         1.2480   -2.4265    0.3923 H         1 <0>         0.0784
     25 H11         1.7705   -0.1474    1.2179 H         1 <0>         0.0925
     26 H12        -0.9818   -0.3219    2.5202 H         1 <0>         0.0500
     27 H13         0.5758   -0.3284    3.3816 H         1 <0>         0.0636
     28 H14         0.0629    1.1187    2.4811 H         1 <0>         0.0680
     29 H15        -3.6847   -1.0745   -0.9149 H         1 <0>         0.4515
     30 H16        -4.6999   -2.3753   -0.5986 H         1 <0>         0.4331
     31 H17        -1.2791   -6.4451    1.4802 H         1 <0>         0.4393
     32 H18        -2.8098   -6.3900    0.7897 H         1 <0>         0.4154
     33 H19        -3.8085   -4.2896    0.3755 H         1 <0>         0.4302
@<TRIPOS>BOND
     1    1    2 1
     2    1   15 1
     3    1   16 1
     4    1   17 1
     5    2    7 1
     6    2    3 1
     7    2   18 1
     8    3    4 1
     9    3   19 1
    10    3   20 1
    11    4   12 1
    12    4    5 1
    13    4   21 1
    14    5    6 1
    15    5    9 1
    16    5   22 1
    17    6    7 1
    18    6   23 1
    19    6   24 1
    20    7    8 1
    21    7   25 1
    22    8   26 1
    23    8   27 1
    24    8   28 1
    25    9   10 2
    26   10   11 1
    27   10   14 1
    28   11   12 2
    29   11   33 1
    30   12   13 1
    31   13   29 1
    32   13   30 1
    33   14   31 1
    34   14   32 1
@<TRIPOS>MOLECULE
CHEMBL82825__10
   33    34     0     0     0
SMALL
USER_CHARGES

@<TRIPOS>ATOM
      1 C1         -0.0187    1.5258    0.0104 C.3       1 <0>        -0.1567
      2 C2          0.0021   -0.0041    0.0020 C.3       1 <0>        -0.0832
      3 C3         -1.4372   -0.5314   -0.0064 C.3       1 <0>        -0.1318
      4 C4         -1.3971   -2.0566    0.0000 C.3       1 <0>        -0.1118
      5 C5         -0.7076   -2.5240    1.2909 C.3       1 <0>         0.1671
      6 C6          0.7389   -2.0397    1.2742 C.3       1 <0>        -0.1220
      7 C7          0.7418   -0.5072    1.2412 C.3       1 <0>        -0.0869
      8 C8          2.1862   -0.0036    1.2085 C.3       1 <0>        -0.1551
      9 N1         -0.7906   -3.9878    1.3452 N.pl3     1 <0>        -0.7305
     10 C9         -2.0552   -4.5458    1.1985 C.2       1 <0>         0.6092
     11 N2         -2.8720   -4.0191    0.2020 N.pl3     1 <0>        -0.6976
     12 C10        -2.7873   -2.6478   -0.0200 C.cat     1 <0>         0.5653
     13 N3         -3.8361   -1.9228   -0.2308 N.pl3     1 <0>        -0.6853
     14 N4         -2.4589   -5.5211    1.9615 N.2       1 <0>        -0.6663
     15 H1          1.0039    1.9031    0.0027 H         1 <0>         0.0712
     16 H2         -0.5459    1.8868   -0.8726 H         1 <0>         0.0603
     17 H3         -0.5289    1.8773    0.9072 H         1 <0>         0.0605
     18 H4          0.5174   -0.3532   -0.8927 H         1 <0>         0.0844
     19 H5         -1.9625   -0.1754    0.8799 H         1 <0>         0.0881
     20 H6         -1.9494   -0.1826   -0.9032 H         1 <0>         0.0869
     21 H7         -0.8379   -2.4104   -0.8661 H         1 <0>         0.1581
     22 H8         -1.2230   -2.0992    2.1523 H         1 <0>         0.0918
     23 H9          1.2514   -2.3872    2.1713 H         1 <0>         0.0942
     24 H10         1.2438   -2.4257    0.3887 H         1 <0>         0.0859
     25 H11         0.2490   -0.1258    2.1355 H         1 <0>         0.0811
     26 H12         2.1908    1.0863    1.1987 H         1 <0>         0.0672
     27 H13         2.7157   -0.3613    2.0915 H         1 <0>         0.0630
     28 H14         2.6810   -0.3771    0.3120 H         1 <0>         0.0603
     29 H15        -3.7440   -0.9691   -0.3823 H         1 <0>         0.4527
     30 H16        -4.7154   -2.3322   -0.2375 H         1 <0>         0.4379
     31 H17        -3.3457   -5.8955    1.8416 H         1 <0>         0.3646
     32 H18        -0.0029   -4.5384    1.4765 H         1 <0>         0.4358
     33 H19        -3.4715   -4.5812   -0.3134 H         1 <0>         0.4416
@<TRIPOS>BOND
     1    1    2 1
     2    1   15 1
     3    1   16 1
     4    1   17 1
     5    2    7 1
     6    2    3 1
     7    2   18 1
     8    3    4 1
     9    3   19 1
    10    3   20 1
    11    4   12 1
    12    4    5 1
    13    4   21 1
    14    5    6 1
    15    5    9 1
    16    5   22 1
    17    6    7 1
    18    6   23 1
    19    6   24 1
    20    7    8 1
    21    7   25 1
    22    8   26 1
    23    8   27 1
    24    8   28 1
    25    9   10 1
    26    9   32 1
    27   10   11 1
    28   10   14 2
    29   11   12 1
    30   11   33 1
    31   12   13 2
    32   13   29 1
    33   13   30 1
    34   14   31 1
@<TRIPOS>MOLECULE
CHEMBL82825__11
   33    34     0     0     0
SMALL
USER_CHARGES

@<TRIPOS>ATOM
      1 C1         -0.0187    1.5258    0.0104 C.3       1 <0>        -0.1555
      2 C2          0.0021   -0.0041    0.0020 C.3       1 <0>        -0.0846
      3 C3         -1.4377   -0.5312   -0.0081 C.3       1 <0>        -0.1152
      4 C4         -1.3952   -2.0558    0.0022 C.3       1 <0>        -0.1219
      5 C5         -0.7060   -2.5227    1.2880 C.3       1 <0>         0.1006
      6 C6          0.7403   -2.0398    1.2759 C.3       1 <0>        -0.0942
      7 C7          0.7418   -0.5069    1.2412 C.3       1 <0>        -0.0908
      8 C8          2.1858   -0.0024    1.2085 C.3       1 <0>        -0.1537
      9 N1         -0.8102   -3.9752    1.3796 N.2       1 <0>        -0.5561
     10 C9         -1.9018   -4.5663    0.9663 C.2       1 <0>         0.5821
     11 N2         -2.9319   -3.8766    0.4202 N.pl3     1 <0>        -0.5999
     12 C10        -2.7696   -2.6633   -0.0500 C.cat     1 <0>         0.5628
     13 N3         -3.8183   -1.9716   -0.5710 N.pl3     1 <0>        -0.7490
     14 N4         -2.0074   -5.9360    1.0911 N.pl3     1 <0>        -0.8216
     15 H1          1.0039    1.9031    0.0027 H         1 <0>         0.0710
     16 H2         -0.5459    1.8868   -0.8726 H         1 <0>         0.0597
     17 H3         -0.5289    1.8773    0.9072 H         1 <0>         0.0601
     18 H4          0.5179   -0.3530   -0.8926 H         1 <0>         0.0826
     19 H5         -1.9649   -0.1736    0.8764 H         1 <0>         0.0883
     20 H6         -1.9481   -0.1852   -0.9070 H         1 <0>         0.0836
     21 H7         -0.8146   -2.4054   -0.8515 H         1 <0>         0.1512
     22 H8         -1.2191   -2.0845    2.1441 H         1 <0>         0.0931
     23 H9          1.2495   -2.3861    2.1752 H         1 <0>         0.0924
     24 H10         1.2480   -2.4265    0.3923 H         1 <0>         0.0785
     25 H11         0.2489   -0.1252    2.1353 H         1 <0>         0.0785
     26 H12         2.1898    1.0876    1.1988 H         1 <0>         0.0658
     27 H13         2.7156   -0.3598    2.0916 H         1 <0>         0.0625
     28 H14         2.6809   -0.3755    0.3120 H         1 <0>         0.0594
     29 H15        -3.6847   -1.0745   -0.9149 H         1 <0>         0.4516
     30 H16        -4.6999   -2.3753   -0.5986 H         1 <0>         0.4332
     31 H17        -1.2791   -6.4451    1.4802 H         1 <0>         0.4394
     32 H18        -2.8098   -6.3900    0.7897 H         1 <0>         0.4155
     33 H19        -3.8085   -4.2896    0.3755 H         1 <0>         0.4303
@<TRIPOS>BOND
     1    1    2 1
     2    1   15 1
     3    1   16 1
     4    1   17 1
     5    2    7 1
     6    2    3 1
     7    2   18 1
     8    3    4 1
     9    3   19 1
    10    3   20 1
    11    4   12 1
    12    4    5 1
    13    4   21 1
    14    5    6 1
    15    5    9 1
    16    5   22 1
    17    6    7 1
    18    6   23 1
    19    6   24 1
    20    7    8 1
    21    7   25 1
    22    8   26 1
    23    8   27 1
    24    8   28 1
    25    9   10 2
    26   10   11 1
    27   10   14 1
    28   11   12 2
    29   11   33 1
    30   12   13 1
    31   13   29 1
    32   13   30 1
    33   14   31 1
    34   14   32 1
@<TRIPOS>MOLECULE
CHEMBL82825__12
   33    34     0     0     0
SMALL
USER_CHARGES

@<TRIPOS>ATOM
      1 C1         -0.2126    1.3995   -0.0552 C.3       1 <0>        -0.1542
      2 C2         -0.0700   -0.1227    0.0042 C.3       1 <0>        -0.0805
      3 C3         -1.4554   -0.7624    0.0913 C.3       1 <0>        -0.1144
      4 C4         -1.3257   -2.2875    0.1298 C.3       1 <0>        -0.0990
      5 C5         -0.4670   -2.7022    1.3300 C.3       1 <0>         0.1617
      6 C6          0.8997   -2.0335    1.2760 C.3       1 <0>        -0.1232
      7 C7          0.7423   -0.5125    1.2419 C.3       1 <0>        -0.0917
      8 C8          0.0113   -0.0451    2.5021 C.3       1 <0>        -0.1773
      9 N1         -1.1742   -2.3351    2.5640 N.pl3     1 <0>        -0.7788
     10 C9         -2.4873   -2.7647    2.6960 C.2       1 <0>         0.5999
     11 N2         -3.3050   -2.6279    1.5772 N.pl3     1 <0>        -0.6472
     12 C10        -2.7143   -2.8686    0.3441 C.cat     1 <0>         0.5681
     13 N3         -3.3139   -3.5517   -0.5746 N.pl3     1 <0>        -0.6807
     14 N4         -2.9327   -3.2701    3.8108 N.2       1 <0>        -0.6848
     15 H1          0.7760    1.8551   -0.1117 H         1 <0>         0.0669
     16 H2         -0.7910    1.6761   -0.9367 H         1 <0>         0.0595
     17 H3         -0.7243    1.7517    0.8404 H         1 <0>         0.0611
     18 H4          0.4397   -0.4760   -0.8922 H         1 <0>         0.0836
     19 H5         -1.9563   -0.4189    0.9964 H         1 <0>         0.0894
     20 H6         -2.0438   -0.4712   -0.7789 H         1 <0>         0.0818
     21 H7         -0.8968   -2.6572   -0.8016 H         1 <0>         0.1430
     22 H8         -0.3342   -3.7840    1.3148 H         1 <0>         0.0875
     23 H9          1.4757   -2.3173    2.1568 H         1 <0>         0.0901
     24 H10         1.4275   -2.3621    0.3807 H         1 <0>         0.0941
     25 H11         1.7259   -0.0451    1.1947 H         1 <0>         0.0897
     26 H12        -1.0301   -0.3639    2.4573 H         1 <0>         0.0740
     27 H13         0.4871   -0.4806    3.3808 H         1 <0>         0.0597
     28 H14         0.0560    1.0421    2.5660 H         1 <0>         0.0668
     29 H15        -2.8780   -3.7050   -1.4275 H         1 <0>         0.4553
     30 H16        -4.1999   -3.9112   -0.4113 H         1 <0>         0.4396
     31 H17        -2.3419   -3.3538    4.5755 H         1 <0>         0.3789
     32 H18        -0.7411   -1.8142    3.2582 H         1 <0>         0.4310
     33 H19        -4.2389   -2.3777    1.6553 H         1 <0>         0.4500
@<TRIPOS>BOND
     1    1    2 1
     2    1   15 1
     3    1   16 1
     4    1   17 1
     5    2    7 1
     6    2    3 1
     7    2   18 1
     8    3    4 1
     9    3   19 1
    10    3   20 1
    11    4   12 1
    12    4    5 1
    13    4   21 1
    14    5    6 1
    15    5    9 1
    16    5   22 1
    17    6    7 1
    18    6   23 1
    19    6   24 1
    20    7    8 1
    21    7   25 1
    22    8   26 1
    23    8   27 1
    24    8   28 1
    25    9   10 1
    26    9   32 1
    27   10   11 1
    28   10   14 2
    29   11   12 1
    30   11   33 1
    31   12   13 2
    32   13   29 1
    33   13   30 1
    34   14   31 1
@<TRIPOS>MOLECULE
CHEMBL82825__13
   33    34     0     0     0
SMALL
USER_CHARGES

@<TRIPOS>ATOM
      1 C1         -0.1409    1.4487   -0.0324 C.3       1 <0>        -0.1528
      2 C2         -0.0440   -0.0779    0.0023 C.3       1 <0>        -0.0814
      3 C3         -1.4484   -0.6777    0.0642 C.3       1 <0>        -0.1158
      4 C4         -1.3648   -2.2067    0.0766 C.3       1 <0>        -0.1050
      5 C5         -0.5258   -2.6708    1.2693 C.3       1 <0>         0.0996
      6 C6          0.8578   -2.0378    1.2478 C.3       1 <0>        -0.0959
      7 C7          0.7424   -0.5127    1.2420 C.3       1 <0>        -0.0913
      8 C8          0.0086   -0.0499    2.5023 C.3       1 <0>        -0.1450
      9 N1         -1.2341   -2.3494    2.5073 N.2       1 <0>        -0.5360
     10 C9         -2.5379   -2.4352    2.5517 C.2       1 <0>         0.5668
     11 N2         -3.2536   -2.8424    1.4739 N.pl3     1 <0>        -0.5963
     12 C10        -2.7661   -2.7519    0.2640 C.cat     1 <0>         0.5520
     13 N3         -3.5053   -3.1405   -0.8094 N.pl3     1 <0>        -0.7521
     14 N4         -3.1982   -2.1059    3.7171 N.pl3     1 <0>        -0.8225
     15 H1          0.8613    1.8756   -0.0703 H         1 <0>         0.0672
     16 H2         -0.7009    1.7572   -0.9153 H         1 <0>         0.0576
     17 H3         -0.6523    1.8007    0.8635 H         1 <0>         0.0607
     18 H4          0.4650   -0.4311   -0.8945 H         1 <0>         0.0820
     19 H5         -1.9484   -0.3354    0.9702 H         1 <0>         0.0817
     20 H6         -2.0188   -0.3537   -0.8063 H         1 <0>         0.0827
     21 H7         -0.9423   -2.5681   -0.8609 H         1 <0>         0.1484
     22 H8         -0.4155   -3.7540    1.2180 H         1 <0>         0.0921
     23 H9          1.4133   -2.3545    2.1305 H         1 <0>         0.0911
     24 H10         1.3896   -2.3630    0.3536 H         1 <0>         0.0834
     25 H11         1.7387   -0.0715    1.2153 H         1 <0>         0.0851
     26 H12        -1.0318   -0.3716    2.4557 H         1 <0>         0.0637
     27 H13         0.4847   -0.4857    3.3806 H         1 <0>         0.0622
     28 H14         0.0501    1.0373    2.5683 H         1 <0>         0.0499
     29 H15        -3.1363   -3.0697   -1.7037 H         1 <0>         0.4519
     30 H16        -4.4016   -3.4884   -0.6808 H         1 <0>         0.4322
     31 H17        -2.6954   -1.8139    4.4935 H         1 <0>         0.4386
     32 H18        -4.1653   -2.1663    3.7602 H         1 <0>         0.4151
     33 H19        -4.1429   -3.2076    1.6030 H         1 <0>         0.4300
@<TRIPOS>BOND
     1    1    2 1
     2    1   15 1
     3    1   16 1
     4    1   17 1
     5    2    7 1
     6    2    3 1
     7    2   18 1
     8    3    4 1
     9    3   19 1
    10    3   20 1
    11    4   12 1
    12    4    5 1
    13    4   21 1
    14    5    6 1
    15    5    9 1
    16    5   22 1
    17    6    7 1
    18    6   23 1
    19    6   24 1
    20    7    8 1
    21    7   25 1
    22    8   26 1
    23    8   27 1
    24    8   28 1
    25    9   10 2
    26   10   11 1
    27   10   14 1
    28   11   12 2
    29   11   33 1
    30   12   13 1
    31   13   29 1
    32   13   30 1
    33   14   31 1
    34   14   32 1
@<TRIPOS>MOLECULE
CHEMBL82825__14
   33    34     0     0     0
SMALL
USER_CHARGES

@<TRIPOS>ATOM
      1 C1         -0.0187    1.5258    0.0104 C.3       1 <0>        -0.1546
      2 C2          0.0021   -0.0041    0.0020 C.3       1 <0>        -0.0820
      3 C3         -1.4313   -0.5344    0.0207 C.3       1 <0>        -0.1094
      4 C4         -1.4229   -2.0652   -0.0090 C.3       1 <0>        -0.1005
      5 C5         -0.6373   -2.6004    1.1934 C.3       1 <0>         0.1677
      6 C6          0.7787   -2.0412    1.2087 C.3       1 <0>        -0.1235
      7 C7          0.7423   -0.5125    1.2419 C.3       1 <0>        -0.0904
      8 C8          2.1715    0.0336    1.2447 C.3       1 <0>        -0.1556
      9 N1         -1.3516   -2.2337    2.4234 N.pl3     1 <0>        -0.7274
     10 C9         -2.6979   -2.5625    2.4989 C.2       1 <0>         0.6096
     11 N2         -3.4670   -2.3109    1.3656 N.pl3     1 <0>        -0.6979
     12 C10        -2.8588   -2.5426    0.1393 C.cat     1 <0>         0.5601
     13 N3         -3.4813   -3.1338   -0.8267 N.pl3     1 <0>        -0.6850
     14 N4         -3.2159   -3.0809    3.5756 N.2       1 <0>        -0.6661
     15 H1          1.0039    1.9031    0.0027 H         1 <0>         0.0708
     16 H2         -0.5459    1.8868   -0.8726 H         1 <0>         0.0588
     17 H3         -0.5289    1.8773    0.9072 H         1 <0>         0.0583
     18 H4          0.5102   -0.3565   -0.8956 H         1 <0>         0.0834
     19 H5         -1.9317   -0.1929    0.9268 H         1 <0>         0.0850
     20 H6         -1.9676   -0.1585   -0.8506 H         1 <0>         0.0810
     21 H7         -0.9955   -2.4258   -0.9447 H         1 <0>         0.1425
     22 H8         -0.5894   -3.6875    1.1310 H         1 <0>         0.0896
     23 H9          1.3029   -2.4092    2.0907 H         1 <0>         0.0934
     24 H10         1.3067   -2.3705    0.3138 H         1 <0>         0.0957
     25 H11         0.2215   -0.1795    2.1397 H         1 <0>         0.0777
     26 H12         2.1441    1.1232    1.2600 H         1 <0>         0.0657
     27 H13         2.6974   -0.3291    2.1279 H         1 <0>         0.0617
     28 H14         2.6913   -0.3041    0.3481 H         1 <0>         0.0603
     29 H15        -3.0324   -3.2831   -1.6735 H         1 <0>         0.4535
     30 H16        -4.3975   -3.4284   -0.7049 H         1 <0>         0.4373
     31 H17        -4.1601   -3.3015    3.6018 H         1 <0>         0.3645
     32 H18        -0.9008   -1.7806    3.1531 H         1 <0>         0.4341
     33 H19        -4.3804   -1.9907    1.4297 H         1 <0>         0.4416
@<TRIPOS>BOND
     1    1    2 1
     2    1   15 1
     3    1   16 1
     4    1   17 1
     5    2    7 1
     6    2    3 1
     7    2   18 1
     8    3    4 1
     9    3   19 1
    10    3   20 1
    11    4   12 1
    12    4    5 1
    13    4   21 1
    14    5    6 1
    15    5    9 1
    16    5   22 1
    17    6    7 1
    18    6   23 1
    19    6   24 1
    20    7    8 1
    21    7   25 1
    22    8   26 1
    23    8   27 1
    24    8   28 1
    25    9   10 1
    26    9   32 1
    27   10   11 1
    28   10   14 2
    29   11   12 1
    30   11   33 1
    31   12   13 2
    32   13   29 1
    33   13   30 1
    34   14   31 1
@<TRIPOS>MOLECULE
CHEMBL82825__15
   33    34     0     0     0
SMALL
USER_CHARGES

@<TRIPOS>ATOM
      1 C1         -0.0187    1.5258    0.0104 C.3       1 <0>        -0.1535
      2 C2          0.0021   -0.0041    0.0020 C.3       1 <0>        -0.0823
      3 C3         -1.4312   -0.5346    0.0216 C.3       1 <0>        -0.1114
      4 C4         -1.4235   -2.0655   -0.0093 C.3       1 <0>        -0.1058
      5 C5         -0.6312   -2.6047    1.1837 C.3       1 <0>         0.0997
      6 C6          0.7822   -2.0413    1.2050 C.3       1 <0>        -0.0953
      7 C7          0.7424   -0.5127    1.2420 C.3       1 <0>        -0.0873
      8 C8          2.1703    0.0368    1.2473 C.3       1 <0>        -0.1539
      9 N1         -1.3460   -2.2837    2.4180 N.2       1 <0>        -0.5487
     10 C9         -2.6530   -2.3056    2.4370 C.2       1 <0>         0.5779
     11 N2         -3.3674   -2.6457    1.3354 N.pl3     1 <0>        -0.5981
     12 C10        -2.8532   -2.5452    0.1373 C.cat     1 <0>         0.5538
     13 N3         -3.5903   -2.8657   -0.9598 N.pl3     1 <0>        -0.7513
     14 N4         -3.3183   -1.9770    3.5998 N.pl3     1 <0>        -0.8215
     15 H1          1.0039    1.9031    0.0027 H         1 <0>         0.0713
     16 H2         -0.5459    1.8868   -0.8726 H         1 <0>         0.0578
     17 H3         -0.5289    1.8773    0.9072 H         1 <0>         0.0574
     18 H4          0.5099   -0.3566   -0.8957 H         1 <0>         0.0826
     19 H5         -1.9307   -0.1936    0.9285 H         1 <0>         0.0768
     20 H6         -1.9683   -0.1578   -0.8488 H         1 <0>         0.0836
     21 H7         -1.0016   -2.4207   -0.9495 H         1 <0>         0.1487
     22 H8         -0.5735   -3.6901    1.1026 H         1 <0>         0.0914
     23 H9          1.3046   -2.4102    2.0876 H         1 <0>         0.0907
     24 H10         1.3142   -2.3670    0.3111 H         1 <0>         0.0833
     25 H11         0.2196   -0.1830    2.1398 H         1 <0>         0.0824
     26 H12         2.1402    1.1263    1.2644 H         1 <0>         0.0634
     27 H13         2.6960   -0.3261    2.1305 H         1 <0>         0.0609
     28 H14         2.6918   -0.2983    0.3507 H         1 <0>         0.0579
     29 H15        -3.2013   -2.7880   -1.8450 H         1 <0>         0.4522
     30 H16        -4.5049   -3.1720   -0.8571 H         1 <0>         0.4325
     31 H17        -2.8165   -1.7327    4.3932 H         1 <0>         0.4391
     32 H18        -4.2879   -1.9902    3.6242 H         1 <0>         0.4155
     33 H19        -4.2760   -2.9696    1.4381 H         1 <0>         0.4301
@<TRIPOS>BOND
     1    1    2 1
     2    1   15 1
     3    1   16 1
     4    1   17 1
     5    2    7 1
     6    2    3 1
     7    2   18 1
     8    3    4 1
     9    3   19 1
    10    3   20 1
    11    4   12 1
    12    4    5 1
    13    4   21 1
    14    5    6 1
    15    5    9 1
    16    5   22 1
    17    6    7 1
    18    6   23 1
    19    6   24 1
    20    7    8 1
    21    7   25 1
    22    8   26 1
    23    8   27 1
    24    8   28 1
    25    9   10 2
    26   10   11 1
    27   10   14 1
    28   11   12 2
    29   11   33 1
    30   12   13 1
    31   13   29 1
    32   13   30 1
    33   14   31 1
    34   14   32 1
@<TRIPOS>MOLECULE
CHEMBL82825__16
   33    34     0     0     0
SMALL
USER_CHARGES

@<TRIPOS>ATOM
      1 C1         -0.0187    1.5258    0.0104 C.3       1 <0>        -0.1546
      2 C2          0.0021   -0.0041    0.0020 C.3       1 <0>        -0.0818
      3 C3          0.7241   -0.4982   -1.2513 C.3       1 <0>        -0.1100
      4 C4          0.7322   -2.0290   -1.2808 C.3       1 <0>        -0.0999
      5 C5          1.4184   -2.5658   -0.0197 C.3       1 <0>         0.1617
      6 C6          0.7338   -2.0420    1.2352 C.3       1 <0>        -0.1235
      7 C7          0.7423   -0.5125    1.2419 C.3       1 <0>        -0.0895
      8 C8          0.0407   -0.0022    2.5022 C.3       1 <0>        -0.1556
      9 N1          2.8309   -2.1634   -0.0447 N.pl3     1 <0>        -0.7758
     10 C9          3.5555   -2.4574   -1.1914 C.2       1 <0>         0.6043
     11 N2          2.9289   -2.2034   -2.4088 N.pl3     1 <0>        -0.6475
     12 C10         1.5676   -2.4682   -2.4729 C.cat     1 <0>         0.5681
     13 N3          1.0376   -3.0579   -3.4934 N.pl3     1 <0>        -0.6806
     14 N4          4.7613   -2.9460   -1.1317 N.2       1 <0>        -0.6832
     15 H1          1.0039    1.9031    0.0027 H         1 <0>         0.0581
     16 H2         -0.5459    1.8868   -0.8726 H         1 <0>         0.0594
     17 H3         -0.5289    1.8773    0.9072 H         1 <0>         0.0706
     18 H4         -1.0202   -0.3822    0.0075 H         1 <0>         0.0834
     19 H5          0.2112   -0.1219   -2.1364 H         1 <0>         0.0820
     20 H6          1.7504   -0.1310   -1.2461 H         1 <0>         0.0850
     21 H7         -0.2842   -2.4139   -1.3645 H         1 <0>         0.1429
     22 H8          1.3677   -3.6547   -0.0239 H         1 <0>         0.0880
     23 H9         -0.2963   -2.3975    1.2598 H         1 <0>         0.0937
     24 H10         1.2616   -2.4099    2.1150 H         1 <0>         0.0904
     25 H11         1.7714   -0.1535    1.2251 H         1 <0>         0.0760
     26 H12        -0.9867   -0.3660    2.5186 H         1 <0>         0.0605
     27 H13         0.5687   -0.3649    3.3841 H         1 <0>         0.0608
     28 H14         0.0402    1.0878    2.5016 H         1 <0>         0.0658
     29 H15         0.0833   -3.2307   -3.5121 H         1 <0>         0.4554
     30 H16         1.5941   -3.3277   -4.2407 H         1 <0>         0.4397
     31 H17         5.1748   -3.1133   -0.2704 H         1 <0>         0.3797
     32 H18         3.2403   -1.7104    0.7090 H         1 <0>         0.4263
     33 H19         3.4182   -1.8591   -3.1723 H         1 <0>         0.4503
@<TRIPOS>BOND
     1    1    2 1
     2    1   15 1
     3    1   16 1
     4    1   17 1
     5    2    7 1
     6    2    3 1
     7    2   18 1
     8    3    4 1
     9    3   19 1
    10    3   20 1
    11    4   12 1
    12    4    5 1
    13    4   21 1
    14    5    6 1
    15    5    9 1
    16    5   22 1
    17    6    7 1
    18    6   23 1
    19    6   24 1
    20    7    8 1
    21    7   25 1
    22    8   26 1
    23    8   27 1
    24    8   28 1
    25    9   10 1
    26    9   32 1
    27   10   11 1
    28   10   14 2
    29   11   12 1
    30   11   33 1
    31   12   13 2
    32   13   29 1
    33   13   30 1
    34   14   31 1
@<TRIPOS>MOLECULE
CHEMBL82825__17
   33    34     0     0     0
SMALL
USER_CHARGES

@<TRIPOS>ATOM
      1 C1         -0.0187    1.5258    0.0104 C.3       1 <0>        -0.1535
      2 C2          0.0021   -0.0041    0.0020 C.3       1 <0>        -0.0823
      3 C3          0.7249   -0.4983   -1.2507 C.3       1 <0>        -0.1114
      4 C4          0.7322   -2.0293   -1.2814 C.3       1 <0>        -0.1057
      5 C5          1.4070   -2.5704   -0.0191 C.3       1 <0>         0.0997
      6 C6          0.7288   -2.0421    1.2365 C.3       1 <0>        -0.0953
      7 C7          0.7424   -0.5127    1.2420 C.3       1 <0>        -0.0873
      8 C8          0.0435    0.0011    2.5023 C.3       1 <0>        -0.1539
      9 N1          2.8246   -2.2136   -0.0432 N.2       1 <0>        -0.5487
     10 C9          3.4733   -2.2026   -1.1783 C.2       1 <0>         0.5779
     11 N2          2.8627   -2.5410   -2.3412 N.pl3     1 <0>        -0.5980
     12 C10         1.5632   -2.4710   -2.4689 C.cat     1 <0>         0.5538
     13 N3          0.9670   -2.7900   -3.6489 N.pl3     1 <0>        -0.7513
     14 N4          4.8039   -1.8396   -1.1935 N.pl3     1 <0>        -0.8215
     15 H1          1.0039    1.9031    0.0027 H         1 <0>         0.0574
     16 H2         -0.5459    1.8868   -0.8726 H         1 <0>         0.0578
     17 H3         -0.5289    1.8773    0.9072 H         1 <0>         0.0713
     18 H4         -1.0202   -0.3824    0.0072 H         1 <0>         0.0826
     19 H5          0.2132   -0.1212   -2.1361 H         1 <0>         0.0836
     20 H6          1.7514   -0.1317   -1.2444 H         1 <0>         0.0768
     21 H7         -0.2856   -2.4087   -1.3721 H         1 <0>         0.1487
     22 H8          1.3352   -3.6581   -0.0238 H         1 <0>         0.0914
     23 H9         -0.3024   -2.3941    1.2651 H         1 <0>         0.0833
     24 H10         1.2582   -2.4110    2.1150 H         1 <0>         0.0907
     25 H11         1.7725   -0.1569    1.2234 H         1 <0>         0.0824
     26 H12        -0.9848   -0.3601    2.5204 H         1 <0>         0.0579
     27 H13         0.5715   -0.3618    3.3841 H         1 <0>         0.0609
     28 H14         0.0458    1.0911    2.5004 H         1 <0>         0.0634
     29 H15         0.0024   -2.7357   -3.7352 H         1 <0>         0.4522
     30 H16         1.5064   -3.0718   -4.4043 H         1 <0>         0.4325
     31 H17         5.2496   -1.5956   -0.3672 H         1 <0>         0.4391
     32 H18         5.2940   -1.8283   -2.0305 H         1 <0>         0.4155
     33 H19         3.3997   -2.8399   -3.0917 H         1 <0>         0.4301
@<TRIPOS>BOND
     1    1    2 1
     2    1   15 1
     3    1   16 1
     4    1   17 1
     5    2    7 1
     6    2    3 1
     7    2   18 1
     8    3    4 1
     9    3   19 1
    10    3   20 1
    11    4   12 1
    12    4    5 1
    13    4   21 1
    14    5    6 1
    15    5    9 1
    16    5   22 1
    17    6    7 1
    18    6   23 1
    19    6   24 1
    20    7    8 1
    21    7   25 1
    22    8   26 1
    23    8   27 1
    24    8   28 1
    25    9   10 2
    26   10   11 1
    27   10   14 1
    28   11   12 2
    29   11   33 1
    30   12   13 1
    31   13   29 1
    32   13   30 1
    33   14   31 1
    34   14   32 1
@<TRIPOS>MOLECULE
CHEMBL82825__18
   33    34     0     0     0
SMALL
USER_CHARGES

@<TRIPOS>ATOM
      1 C1          0.1082    1.1370   -0.5264 C.3       1 <0>        -0.1541
      2 C2          0.1186   -0.3449   -0.1461 C.3       1 <0>        -0.0808
      3 C3          0.9453   -1.1281   -1.1656 C.3       1 <0>        -0.1138
      4 C4          0.9449   -2.6164   -0.8066 C.3       1 <0>        -0.0995
      5 C5          1.5128   -2.8070    0.6044 C.3       1 <0>         0.1671
      6 C6          0.7234   -1.9941    1.6212 C.3       1 <0>        -0.1234
      7 C7          0.7423   -0.5125    1.2419 C.3       1 <0>        -0.0921
      8 C8          2.1868   -0.0086    1.2183 C.3       1 <0>        -0.1782
      9 N1          2.9247   -2.4021    0.6022 N.pl3     1 <0>        -0.7301
     10 C9          3.7460   -2.9647   -0.3649 C.2       1 <0>         0.6049
     11 N2          3.2317   -3.0359   -1.6570 N.pl3     1 <0>        -0.6978
     12 C10         1.8795   -3.3293   -1.7710 C.cat     1 <0>         0.5602
     13 N3          1.4379   -4.1656   -2.6518 N.pl3     1 <0>        -0.6850
     14 N4          4.9383   -3.4038   -0.0783 N.2       1 <0>        -0.6676
     15 H1          1.1301    1.5159   -0.5397 H         1 <0>         0.0613
     16 H2         -0.3361    1.2554   -1.5148 H         1 <0>         0.0589
     17 H3         -0.4770    1.6955    0.2042 H         1 <0>         0.0671
     18 H4         -0.9029   -0.7252   -0.1348 H         1 <0>         0.0836
     19 H5          0.5156   -0.9953   -2.1585 H         1 <0>         0.0807
     20 H6          1.9697   -0.7556   -1.1636 H         1 <0>         0.0894
     21 H7         -0.0628   -3.0257   -0.8789 H         1 <0>         0.1426
     22 H8          1.4548   -3.8623    0.8710 H         1 <0>         0.0892
     23 H9         -0.3074   -2.3478    1.6446 H         1 <0>         0.0962
     24 H10         1.1685   -2.1200    2.6082 H         1 <0>         0.0930
     25 H11         0.1675    0.0581    1.9714 H         1 <0>         0.0907
     26 H12         2.1912    1.0774    1.1252 H         1 <0>         0.0670
     27 H13         2.6870   -0.2960    2.1431 H         1 <0>         0.0625
     28 H14         2.7111   -0.4481    0.3698 H         1 <0>         0.0738
     29 H15         0.4878   -4.3523   -2.7097 H         1 <0>         0.4535
     30 H16         2.0564   -4.6065   -3.2549 H         1 <0>         0.4372
     31 H17         5.4919   -3.7927   -0.7734 H         1 <0>         0.3639
     32 H18         3.2691   -1.7678    1.2503 H         1 <0>         0.4385
     33 H19         3.7891   -2.8878   -2.4368 H         1 <0>         0.4413
@<TRIPOS>BOND
     1    1    2 1
     2    1   15 1
     3    1   16 1
     4    1   17 1
     5    2    7 1
     6    2    3 1
     7    2   18 1
     8    3    4 1
     9    3   19 1
    10    3   20 1
    11    4   12 1
    12    4    5 1
    13    4   21 1
    14    5    6 1
    15    5    9 1
    16    5   22 1
    17    6    7 1
    18    6   23 1
    19    6   24 1
    20    7    8 1
    21    7   25 1
    22    8   26 1
    23    8   27 1
    24    8   28 1
    25    9   10 1
    26    9   32 1
    27   10   11 1
    28   10   14 2
    29   11   12 1
    30   11   33 1
    31   12   13 2
    32   13   29 1
    33   13   30 1
    34   14   31 1
@<TRIPOS>MOLECULE
CHEMBL82825__19
   33    34     0     0     0
SMALL
USER_CHARGES

@<TRIPOS>ATOM
      1 C1          0.0869    1.1957   -0.4618 C.3       1 <0>        -0.1528
      2 C2          0.1013   -0.2982   -0.1318 C.3       1 <0>        -0.0814
      3 C3          0.9154   -1.0467   -1.1868 C.3       1 <0>        -0.1159
      4 C4          0.9182   -2.5468   -0.8792 C.3       1 <0>        -0.1050
      5 C5          1.4921   -2.7888    0.5185 C.3       1 <0>         0.0996
      6 C6          0.7224   -2.0060    1.5722 C.3       1 <0>        -0.0959
      7 C7          0.7424   -0.5127    1.2420 C.3       1 <0>        -0.0914
      8 C8          2.1883   -0.0132    1.2160 C.3       1 <0>        -0.1450
      9 N1          2.9091   -2.4284    0.5236 N.2       1 <0>        -0.5359
     10 C9          3.6425   -2.6591   -0.5337 C.2       1 <0>         0.5668
     11 N2          3.1211   -3.2523   -1.6364 N.pl3     1 <0>        -0.5963
     12 C10         1.8355   -3.2283   -1.8742 C.cat     1 <0>         0.5520
     13 N3          1.3298   -3.8062   -2.9966 N.pl3     1 <0>        -0.7521
     14 N4          4.9721   -2.2918   -0.5279 N.pl3     1 <0>        -0.8225
     15 H1          1.1087    1.5747   -0.4752 H         1 <0>         0.0607
     16 H2         -0.3697    1.3473   -1.4399 H         1 <0>         0.0576
     17 H3         -0.4888    1.7293    0.2944 H         1 <0>         0.0672
     18 H4         -0.9201   -0.6788   -0.1207 H         1 <0>         0.0820
     19 H5          0.4746   -0.8797   -2.1695 H         1 <0>         0.0827
     20 H6          1.9401   -0.6749   -1.1838 H         1 <0>         0.0817
     21 H7         -0.0914   -2.9494   -0.9607 H         1 <0>         0.1484
     22 H8          1.4160   -3.8517    0.7479 H         1 <0>         0.0921
     23 H9         -0.3095   -2.3559    1.5996 H         1 <0>         0.0834
     24 H10         1.1814   -2.1662    2.5478 H         1 <0>         0.0911
     25 H11         0.1790    0.0355    1.9971 H         1 <0>         0.0851
     26 H12         2.1960    1.0726    1.1211 H         1 <0>         0.0499
     27 H13         2.6887   -0.3007    2.1407 H         1 <0>         0.0622
     28 H14         2.7103   -0.4558    0.3676 H         1 <0>         0.0637
     29 H15         0.3748   -3.7841   -3.1653 H         1 <0>         0.4519
     30 H16         1.9240   -4.2404   -3.6285 H         1 <0>         0.4322
     31 H17         5.3544   -1.8667    0.2556 H         1 <0>         0.4385
     32 H18         5.5247   -2.4586   -1.3075 H         1 <0>         0.4151
     33 H19         3.7125   -3.7022   -2.2599 H         1 <0>         0.4300
@<TRIPOS>BOND
     1    1    2 1
     2    1   15 1
     3    1   16 1
     4    1   17 1
     5    2    7 1
     6    2    3 1
     7    2   18 1
     8    3    4 1
     9    3   19 1
    10    3   20 1
    11    4   12 1
    12    4    5 1
    13    4   21 1
    14    5    6 1
    15    5    9 1
    16    5   22 1
    17    6    7 1
    18    6   23 1
    19    6   24 1
    20    7    8 1
    21    7   25 1
    22    8   26 1
    23    8   27 1
    24    8   28 1
    25    9   10 2
    26   10   11 1
    27   10   14 1
    28   11   12 2
    29   11   33 1
    30   12   13 1
    31   13   29 1
    32   13   30 1
    33   14   31 1
    34   14   32 1
@<TRIPOS>MOLECULE
CHEMBL82825__20
   33    34     0     0     0
SMALL
USER_CHARGES

@<TRIPOS>ATOM
      1 C1         -0.0187    1.5258    0.0104 C.3       1 <0>        -0.1567
      2 C2          0.0021   -0.0041    0.0020 C.3       1 <0>        -0.0832
      3 C3          0.7031   -0.4954   -1.2695 C.3       1 <0>        -0.1318
      4 C4          0.7274   -2.0209   -1.2538 C.3       1 <0>        -0.1118
      5 C5          1.5357   -2.4863   -0.0330 C.3       1 <0>         0.1670
      6 C6          0.8103   -2.0385    1.2321 C.3       1 <0>        -0.1220
      7 C7          0.7418   -0.5072    1.2412 C.3       1 <0>        -0.0869
      8 C8          0.0028   -0.0403    2.4969 C.3       1 <0>        -0.1551
      9 N1          1.6599   -3.9466   -0.1009 N.pl3     1 <0>        -0.7305
     10 C9          2.1564   -4.4750   -1.2868 C.2       1 <0>         0.6092
     11 N2          1.6657   -3.9428   -2.4758 N.pl3     1 <0>        -0.6976
     12 C10         1.3963   -2.5775   -2.4888 C.cat     1 <0>         0.5653
     13 N3          1.7004   -1.8297   -3.4980 N.pl3     1 <0>        -0.6854
     14 N4          3.0441   -5.4281   -1.2856 N.2       1 <0>        -0.6663
     15 H1          1.0039    1.9031    0.0027 H         1 <0>         0.0605
     16 H2         -0.5459    1.8868   -0.8726 H         1 <0>         0.0603
     17 H3         -0.5289    1.8773    0.9072 H         1 <0>         0.0712
     18 H4         -1.0213   -0.3791    0.0153 H         1 <0>         0.0844
     19 H5          0.1571   -0.1472   -2.1462 H         1 <0>         0.0869
     20 H6          1.7237   -0.1135   -1.2955 H         1 <0>         0.0881
     21 H7         -0.2919   -2.4013   -1.1883 H         1 <0>         0.1581
     22 H8          2.5280   -2.0362   -0.0613 H         1 <0>         0.0917
     23 H9         -0.1990   -2.4499    1.2401 H         1 <0>         0.0859
     24 H10         1.3565   -2.3854    2.1093 H         1 <0>         0.0942
     25 H11         1.7531   -0.1005    1.2479 H         1 <0>         0.0811
     26 H12        -1.0115   -0.4392    2.4910 H         1 <0>         0.0603
     27 H13         0.5288   -0.3981    3.3821 H         1 <0>         0.0629
     28 H14        -0.0351    1.0489    2.5123 H         1 <0>         0.0672
     29 H15         1.4995   -0.8810   -3.4766 H         1 <0>         0.4527
     30 H16         2.1295   -2.2172   -4.2769 H         1 <0>         0.4379
     31 H17         3.3768   -5.7820   -2.1252 H         1 <0>         0.3646
     32 H18         1.4086   -4.5146    0.6442 H         1 <0>         0.4358
     33 H19         1.5188   -4.4972   -3.2581 H         1 <0>         0.4416
@<TRIPOS>BOND
     1    1    2 1
     2    1   15 1
     3    1   16 1
     4    1   17 1
     5    2    7 1
     6    2    3 1
     7    2   18 1
     8    3    4 1
     9    3   19 1
    10    3   20 1
    11    4   12 1
    12    4    5 1
    13    4   21 1
    14    5    6 1
    15    5    9 1
    16    5   22 1
    17    6    7 1
    18    6   23 1
    19    6   24 1
    20    7    8 1
    21    7   25 1
    22    8   26 1
    23    8   27 1
    24    8   28 1
    25    9   10 1
    26    9   32 1
    27   10   11 1
    28   10   14 2
    29   11   12 1
    30   11   33 1
    31   12   13 2
    32   13   29 1
    33   13   30 1
    34   14   31 1
@<TRIPOS>MOLECULE
CHEMBL82825__21
   33    34     0     0     0
SMALL
USER_CHARGES

@<TRIPOS>ATOM
      1 C1         -0.0187    1.5258    0.0104 C.3       1 <0>        -0.1555
      2 C2          0.0021   -0.0041    0.0020 C.3       1 <0>        -0.0846
      3 C3          0.7019   -0.4953   -1.2708 C.3       1 <0>        -0.1152
      4 C4          0.7284   -2.0201   -1.2511 C.3       1 <0>        -0.1219
      5 C5          1.5325   -2.4851   -0.0330 C.3       1 <0>         0.1006
      6 C6          0.8111   -2.0386    1.2341 C.3       1 <0>        -0.0942
      7 C7          0.7418   -0.5069    1.2412 C.3       1 <0>        -0.0908
      8 C8          0.0030   -0.0390    2.4967 C.3       1 <0>        -0.1537
      9 N1          1.6991   -3.9330   -0.1012 N.2       1 <0>        -0.5561
     10 C9          1.8795   -4.5027   -1.2652 C.2       1 <0>         0.5821
     11 N2          1.8820   -3.7957   -2.4206 N.pl3     1 <0>        -0.5999
     12 C10         1.3618   -2.5939   -2.4881 C.cat     1 <0>         0.5628
     13 N3          1.3945   -1.8843   -3.6479 N.pl3     1 <0>        -0.7490
     14 N4          2.0738   -5.8674   -1.3173 N.pl3     1 <0>        -0.8216
     15 H1          1.0039    1.9031    0.0027 H         1 <0>         0.0601
     16 H2         -0.5459    1.8868   -0.8726 H         1 <0>         0.0597
     17 H3         -0.5289    1.8773    0.9072 H         1 <0>         0.0710
     18 H4         -1.0214   -0.3789    0.0158 H         1 <0>         0.0826
     19 H5          0.1531   -0.1499   -2.1469 H         1 <0>         0.0836
     20 H6          1.7218   -0.1117   -1.2992 H         1 <0>         0.0883
     21 H7         -0.2905   -2.3966   -1.1608 H         1 <0>         0.1513
     22 H8          2.5186   -2.0217   -0.0616 H         1 <0>         0.0931
     23 H9         -0.1979   -2.4508    1.2455 H         1 <0>         0.0785
     24 H10         1.3608   -2.3843    2.1095 H         1 <0>         0.0924
     25 H11         1.7529   -0.0999    1.2477 H         1 <0>         0.0785
     26 H12        -1.0115   -0.4375    2.4910 H         1 <0>         0.0594
     27 H13         0.5288   -0.3965    3.3820 H         1 <0>         0.0625
     28 H14        -0.0345    1.0502    2.5115 H         1 <0>         0.0658
     29 H15         1.0060   -0.9962   -3.6842 H         1 <0>         0.4516
     30 H16         1.8063   -2.2663   -4.4387 H         1 <0>         0.4332
     31 H17         2.0753   -6.3887   -0.4993 H         1 <0>         0.4394
     32 H18         2.2091   -6.3057   -2.1720 H         1 <0>         0.4155
     33 H19         2.2772   -4.1870   -3.2153 H         1 <0>         0.4303
@<TRIPOS>BOND
     1    1    2 1
     2    1   15 1
     3    1   16 1
     4    1   17 1
     5    2    7 1
     6    2    3 1
     7    2   18 1
     8    3    4 1
     9    3   19 1
    10    3   20 1
    11    4   12 1
    12    4    5 1
    13    4   21 1
    14    5    6 1
    15    5    9 1
    16    5   22 1
    17    6    7 1
    18    6   23 1
    19    6   24 1
    20    7    8 1
    21    7   25 1
    22    8   26 1
    23    8   27 1
    24    8   28 1
    25    9   10 2
    26   10   11 1
    27   10   14 1
    28   11   12 2
    29   11   33 1
    30   12   13 1
    31   13   29 1
    32   13   30 1
    33   14   31 1
    34   14   32 1
@<TRIPOS>MOLECULE
CHEMBL82825__22
   33    34     0     0     0
SMALL
USER_CHARGES

@<TRIPOS>ATOM
      1 C1         -0.0187    1.5258    0.0104 C.3       1 <0>        -0.1573
      2 C2          0.0021   -0.0041    0.0020 C.3       1 <0>        -0.0812
      3 C3          0.7031   -0.4954   -1.2695 C.3       1 <0>        -0.1344
      4 C4          0.7274   -2.0209   -1.2538 C.3       1 <0>        -0.1110
      5 C5          1.5357   -2.4863   -0.0330 C.3       1 <0>         0.1573
      6 C6          0.8103   -2.0385    1.2321 C.3       1 <0>        -0.1209
      7 C7          0.7418   -0.5072    1.2412 C.3       1 <0>        -0.0895
      8 C8          2.1613    0.0636    1.2506 C.3       1 <0>        -0.1617
      9 N1          1.6599   -3.9466   -0.1009 N.pl3     1 <0>        -0.7792
     10 C9          2.1564   -4.4750   -1.2868 C.2       1 <0>         0.6037
     11 N2          1.6657   -3.9428   -2.4758 N.pl3     1 <0>        -0.6471
     12 C10         1.3963   -2.5775   -2.4888 C.cat     1 <0>         0.5733
     13 N3          1.7004   -1.8297   -3.4980 N.pl3     1 <0>        -0.6815
     14 N4          3.0441   -5.4281   -1.2856 N.2       1 <0>        -0.6834
     15 H1          1.0039    1.9031    0.0027 H         1 <0>         0.0646
     16 H2         -0.5459    1.8868   -0.8726 H         1 <0>         0.0606
     17 H3         -0.5289    1.8773    0.9072 H         1 <0>         0.0677
     18 H4         -1.0213   -0.3791    0.0153 H         1 <0>         0.0841
     19 H5          0.1571   -0.1472   -2.1462 H         1 <0>         0.0871
     20 H6          1.7237   -0.1135   -1.2955 H         1 <0>         0.0901
     21 H7         -0.2919   -2.4013   -1.1883 H         1 <0>         0.1580
     22 H8          2.5280   -2.0362   -0.0613 H         1 <0>         0.0939
     23 H9         -0.1990   -2.4499    1.2401 H         1 <0>         0.0843
     24 H10         1.3565   -2.3854    2.1093 H         1 <0>         0.0914
     25 H11         0.2154   -0.1746    2.1358 H         1 <0>         0.0933
     26 H12         2.1149    1.1524    1.2709 H         1 <0>         0.0697
     27 H13         2.6908   -0.2940    2.1337 H         1 <0>         0.0635
     28 H14         2.6894   -0.2610    0.3541 H         1 <0>         0.0518
     29 H15         1.4995   -0.8810   -3.4766 H         1 <0>         0.4544
     30 H16         2.1295   -2.2172   -4.2769 H         1 <0>         0.4402
     31 H17         3.3725   -5.7839   -0.4451 H         1 <0>         0.3798
     32 H18         1.4086   -4.5146    0.6442 H         1 <0>         0.4277
     33 H19         1.5188   -4.4972   -3.2581 H         1 <0>         0.4505
@<TRIPOS>BOND
     1    1    2 1
     2    1   15 1
     3    1   16 1
     4    1   17 1
     5    2    7 1
     6    2    3 1
     7    2   18 1
     8    3    4 1
     9    3   19 1
    10    3   20 1
    11    4   12 1
    12    4    5 1
    13    4   21 1
    14    5    6 1
    15    5    9 1
    16    5   22 1
    17    6    7 1
    18    6   23 1
    19    6   24 1
    20    7    8 1
    21    7   25 1
    22    8   26 1
    23    8   27 1
    24    8   28 1
    25    9   10 1
    26    9   32 1
    27   10   11 1
    28   10   14 2
    29   11   12 1
    30   11   33 1
    31   12   13 2
    32   13   29 1
    33   13   30 1
    34   14   31 1
@<TRIPOS>MOLECULE
CHEMBL82825__23
   33    34     0     0     0
SMALL
USER_CHARGES

@<TRIPOS>ATOM
      1 C1         -0.0187    1.5258    0.0104 C.3       1 <0>        -0.1560
      2 C2          0.0021   -0.0041    0.0020 C.3       1 <0>        -0.0830
      3 C3          0.7019   -0.4953   -1.2708 C.3       1 <0>        -0.1176
      4 C4          0.7284   -2.0201   -1.2511 C.3       1 <0>        -0.1215
      5 C5          1.5325   -2.4851   -0.0330 C.3       1 <0>         0.0969
      6 C6          0.8111   -2.0386    1.2341 C.3       1 <0>        -0.0934
      7 C7          0.7418   -0.5069    1.2412 C.3       1 <0>        -0.0932
      8 C8          2.1611    0.0644    1.2504 C.3       1 <0>        -0.1596
      9 N1          1.6991   -3.9330   -0.1012 N.2       1 <0>        -0.5555
     10 C9          1.8795   -4.5027   -1.2652 C.2       1 <0>         0.5811
     11 N2          1.8820   -3.7957   -2.4206 N.pl3     1 <0>        -0.5996
     12 C10         1.3618   -2.5939   -2.4881 C.cat     1 <0>         0.5624
     13 N3          1.3945   -1.8843   -3.6479 N.pl3     1 <0>        -0.7492
     14 N4          2.0738   -5.8674   -1.3173 N.pl3     1 <0>        -0.8218
     15 H1          1.0039    1.9031    0.0027 H         1 <0>         0.0642
     16 H2         -0.5459    1.8868   -0.8726 H         1 <0>         0.0596
     17 H3         -0.5289    1.8773    0.9072 H         1 <0>         0.0676
     18 H4         -1.0214   -0.3789    0.0158 H         1 <0>         0.0825
     19 H5          0.1531   -0.1499   -2.1469 H         1 <0>         0.0831
     20 H6          1.7218   -0.1117   -1.2992 H         1 <0>         0.0902
     21 H7         -0.2905   -2.3966   -1.1608 H         1 <0>         0.1510
     22 H8          2.5186   -2.0217   -0.0616 H         1 <0>         0.0972
     23 H9         -0.1979   -2.4508    1.2455 H         1 <0>         0.0784
     24 H10         1.3608   -2.3843    2.1095 H         1 <0>         0.0926
     25 H11         0.2155   -0.1736    2.1356 H         1 <0>         0.0925
     26 H12         2.1144    1.1532    1.2705 H         1 <0>         0.0680
     27 H13         2.6908   -0.2929    2.1335 H         1 <0>         0.0636
     28 H14         2.6892   -0.2602    0.3538 H         1 <0>         0.0500
     29 H15         1.0060   -0.9962   -3.6842 H         1 <0>         0.4515
     30 H16         1.8063   -2.2663   -4.4387 H         1 <0>         0.4331
     31 H17         2.0753   -6.3887   -0.4993 H         1 <0>         0.4393
     32 H18         2.2091   -6.3057   -2.1720 H         1 <0>         0.4154
     33 H19         2.2772   -4.1870   -3.2153 H         1 <0>         0.4302
@<TRIPOS>BOND
     1    1    2 1
     2    1   15 1
     3    1   16 1
     4    1   17 1
     5    2    7 1
     6    2    3 1
     7    2   18 1
     8    3    4 1
     9    3   19 1
    10    3   20 1
    11    4   12 1
    12    4    5 1
    13    4   21 1
    14    5    6 1
    15    5    9 1
    16    5   22 1
    17    6    7 1
    18    6   23 1
    19    6   24 1
    20    7    8 1
    21    7   25 1
    22    8   26 1
    23    8   27 1
    24    8   28 1
    25    9   10 2
    26   10   11 1
    27   10   14 1
    28   11   12 2
    29   11   33 1
    30   12   13 1
    31   13   29 1
    32   13   30 1
    33   14   31 1
    34   14   32 1
@<TRIPOS>MOLECULE
CHEMBL82825__24
   33    34     0     0     0
SMALL
USER_CHARGES

@<TRIPOS>ATOM
      1 C1         -0.0187    1.5258    0.0104 C.3       1 <0>        -0.1622
      2 C2          0.0021   -0.0041    0.0020 C.3       1 <0>        -0.0834
      3 C3          0.7031   -0.4954   -1.2695 C.3       1 <0>        -0.1330
      4 C4          2.1381    0.0233   -1.2659 C.3       1 <0>        -0.1158
      5 C5          2.8668   -0.5575   -0.0444 C.3       1 <0>         0.1643
      6 C6          2.1977   -0.0280    1.2202 C.3       1 <0>        -0.1232
      7 C7          0.7418   -0.5072    1.2412 C.3       1 <0>        -0.0883
      8 C8          0.7119   -2.0367    1.2631 C.3       1 <0>        -0.1601
      9 N1          4.2757   -0.1560   -0.1234 N.pl3     1 <0>        -0.7303
     10 C9          4.9393   -0.4422   -1.3107 C.2       1 <0>         0.6092
     11 N2          4.2611   -0.1818   -2.4981 N.pl3     1 <0>        -0.6976
     12 C10         2.8889   -0.4145   -2.5016 C.cat     1 <0>         0.5647
     13 N3          2.2921   -0.9722   -3.5031 N.pl3     1 <0>        -0.6857
     14 N4          6.1456   -0.9333   -1.3122 N.2       1 <0>        -0.6664
     15 H1          1.0039    1.9031    0.0027 H         1 <0>         0.0574
     16 H2         -0.5459    1.8868   -0.8726 H         1 <0>         0.0616
     17 H3         -0.5289    1.8773    0.9072 H         1 <0>         0.0704
     18 H4         -1.0213   -0.3791    0.0153 H         1 <0>         0.0948
     19 H5          0.7081   -1.5853   -1.2867 H         1 <0>         0.0899
     20 H6          0.1790   -0.1154   -2.1464 H         1 <0>         0.0866
     21 H7          2.1323    1.1118   -1.2091 H         1 <0>         0.1605
     22 H8          2.7979   -1.6452   -0.0636 H         1 <0>         0.0952
     23 H9          2.7207   -0.4085    2.0976 H         1 <0>         0.0939
     24 H10         2.2242    1.0617    1.2193 H         1 <0>         0.0878
     25 H11         0.2490   -0.1258    2.1355 H         1 <0>         0.0946
     26 H12         1.1978   -2.4225    0.3669 H         1 <0>         0.0518
     27 H13         1.2390   -2.3978    2.1462 H         1 <0>         0.0656
     28 H14        -0.3224   -2.3795    1.2918 H         1 <0>         0.0660
     29 H15         1.3340   -1.1208   -3.4752 H         1 <0>         0.4525
     30 H16         2.8023   -1.2422   -4.2826 H         1 <0>         0.4377
     31 H17         6.5899   -1.1255   -2.1528 H         1 <0>         0.3645
     32 H18         4.7215    0.2870    0.6155 H         1 <0>         0.4355
     33 H19         4.7228    0.1465   -3.2854 H         1 <0>         0.4415
@<TRIPOS>BOND
     1    1    2 1
     2    1   15 1
     3    1   16 1
     4    1   17 1
     5    2    7 1
     6    2    3 1
     7    2   18 1
     8    3    4 1
     9    3   19 1
    10    3   20 1
    11    4   12 1
    12    4    5 1
    13    4   21 1
    14    5    6 1
    15    5    9 1
    16    5   22 1
    17    6    7 1
    18    6   23 1
    19    6   24 1
    20    7    8 1
    21    7   25 1
    22    8   26 1
    23    8   27 1
    24    8   28 1
    25    9   10 1
    26    9   32 1
    27   10   11 1
    28   10   14 2
    29   11   12 1
    30   11   33 1
    31   12   13 2
    32   13   29 1
    33   13   30 1
    34   14   31 1
@<TRIPOS>MOLECULE
CHEMBL82825__25
   33    34     0     0     0
SMALL
USER_CHARGES

@<TRIPOS>ATOM
      1 C1         -0.0187    1.5258    0.0104 C.3       1 <0>        -0.1615
      2 C2          0.0021   -0.0041    0.0020 C.3       1 <0>        -0.0847
      3 C3          0.7019   -0.4953   -1.2708 C.3       1 <0>        -0.1164
      4 C4          2.1372    0.0206   -1.2640 C.3       1 <0>        -0.1260
      5 C5          2.8643   -0.5560   -0.0452 C.3       1 <0>         0.0980
      6 C6          2.1985   -0.0289    1.2213 C.3       1 <0>        -0.0952
      7 C7          0.7418   -0.5069    1.2412 C.3       1 <0>        -0.0928
      8 C8          0.7108   -2.0364    1.2637 C.3       1 <0>        -0.1576
      9 N1          4.2768   -0.1992   -0.1249 N.2       1 <0>        -0.5554
     10 C9          4.8665   -0.1760   -1.2926 C.2       1 <0>         0.5810
     11 N2          4.1993   -0.4380   -2.4420 N.pl3     1 <0>        -0.5998
     12 C10         2.8909   -0.3790   -2.5022 C.cat     1 <0>         0.5619
     13 N3          2.2320   -0.6718   -3.6553 N.pl3     1 <0>        -0.7494
     14 N4          6.2111    0.1255   -1.3554 N.pl3     1 <0>        -0.8218
     15 H1          1.0039    1.9031    0.0027 H         1 <0>         0.0561
     16 H2         -0.5459    1.8868   -0.8726 H         1 <0>         0.0610
     17 H3         -0.5289    1.8773    0.9072 H         1 <0>         0.0705
     18 H4         -1.0214   -0.3789    0.0158 H         1 <0>         0.0942
     19 H5          0.7046   -1.5851   -1.2898 H         1 <0>         0.0902
     20 H6          0.1792   -0.1121   -2.1472 H         1 <0>         0.0832
     21 H7          2.1286    1.1075   -1.1830 H         1 <0>         0.1539
     22 H8          2.7803   -1.6426   -0.0640 H         1 <0>         0.0969
     23 H9          2.7218   -0.4128    2.0970 H         1 <0>         0.0920
     24 H10         2.2264    1.0608    1.2233 H         1 <0>         0.0805
     25 H11         0.2489   -0.1252    2.1353 H         1 <0>         0.0927
     26 H12         1.1962   -2.4229    0.3676 H         1 <0>         0.0503
     27 H13         1.2379   -2.3975    2.1468 H         1 <0>         0.0647
     28 H14        -0.3237   -2.3785    1.2929 H         1 <0>         0.0644
     29 H15         1.2637   -0.6243   -3.6862 H         1 <0>         0.4514
     30 H16         2.7305   -0.9283   -4.4470 H         1 <0>         0.4330
     31 H17         6.7039    0.3160   -0.5419 H         1 <0>         0.4393
     32 H18         6.6638    0.1471   -2.2130 H         1 <0>         0.4154
     33 H19         4.7004   -0.6744   -3.2381 H         1 <0>         0.4300
@<TRIPOS>BOND
     1    1    2 1
     2    1   15 1
     3    1   16 1
     4    1   17 1
     5    2    7 1
     6    2    3 1
     7    2   18 1
     8    3    4 1
     9    3   19 1
    10    3   20 1
    11    4   12 1
    12    4    5 1
    13    4   21 1
    14    5    6 1
    15    5    9 1
    16    5   22 1
    17    6    7 1
    18    6   23 1
    19    6   24 1
    20    7    8 1
    21    7   25 1
    22    8   26 1
    23    8   27 1
    24    8   28 1
    25    9   10 2
    26   10   11 1
    27   10   14 1
    28   11   12 2
    29   11   33 1
    30   12   13 1
    31   13   29 1
    32   13   30 1
    33   14   31 1
    34   14   32 1
@<TRIPOS>MOLECULE
CHEMBL82825__26
   33    34     0     0     0
SMALL
USER_CHARGES

@<TRIPOS>ATOM
      1 C1         -0.0187    1.5258    0.0104 C.3       1 <0>        -0.1644
      2 C2          0.0021   -0.0041    0.0020 C.3       1 <0>        -0.0846
      3 C3          0.7031   -0.4954   -1.2695 C.3       1 <0>        -0.1305
      4 C4          2.1381    0.0233   -1.2659 C.3       1 <0>        -0.1162
      5 C5          2.8668   -0.5575   -0.0444 C.3       1 <0>         0.1680
      6 C6          2.1977   -0.0280    1.2202 C.3       1 <0>        -0.1242
      7 C7          0.7418   -0.5072    1.2412 C.3       1 <0>        -0.0859
      8 C8          0.0501    0.0281    2.4965 C.3       1 <0>        -0.1557
      9 N1          4.2757   -0.1560   -0.1234 N.pl3     1 <0>        -0.7304
     10 C9          4.9393   -0.4422   -1.3107 C.2       1 <0>         0.6093
     11 N2          4.2611   -0.1818   -2.4981 N.pl3     1 <0>        -0.6978
     12 C10         2.8889   -0.4145   -2.5016 C.cat     1 <0>         0.5649
     13 N3          2.2921   -0.9722   -3.5031 N.pl3     1 <0>        -0.6856
     14 N4          6.1456   -0.9333   -1.3122 N.2       1 <0>        -0.6663
     15 H1          1.0039    1.9031    0.0027 H         1 <0>         0.0571
     16 H2         -0.5459    1.8868   -0.8726 H         1 <0>         0.0606
     17 H3         -0.5289    1.8773    0.9072 H         1 <0>         0.0739
     18 H4         -1.0213   -0.3791    0.0153 H         1 <0>         0.0945
     19 H5          0.7081   -1.5853   -1.2867 H         1 <0>         0.0883
     20 H6          0.1790   -0.1154   -2.1464 H         1 <0>         0.0869
     21 H7          2.1323    1.1118   -1.2091 H         1 <0>         0.1605
     22 H8          2.7979   -1.6452   -0.0636 H         1 <0>         0.0918
     23 H9          2.7207   -0.4085    2.0976 H         1 <0>         0.0938
     24 H10         2.2242    1.0617    1.2193 H         1 <0>         0.0878
     25 H11         0.7205   -1.5969    1.2568 H         1 <0>         0.0811
     26 H12        -0.9817   -0.3227    2.5204 H         1 <0>         0.0640
     27 H13         0.5761   -0.3295    3.3817 H         1 <0>         0.0629
     28 H14         0.0630    1.1179    2.4818 H         1 <0>         0.0641
     29 H15         1.3340   -1.1208   -3.4752 H         1 <0>         0.4526
     30 H16         2.8023   -1.2422   -4.2826 H         1 <0>         0.4377
     31 H17         6.5899   -1.1255   -2.1528 H         1 <0>         0.3646
     32 H18         4.7215    0.2870    0.6155 H         1 <0>         0.4357
     33 H19         4.7228    0.1465   -3.2854 H         1 <0>         0.4415
@<TRIPOS>BOND
     1    1    2 1
     2    1   15 1
     3    1   16 1
     4    1   17 1
     5    2    7 1
     6    2    3 1
     7    2   18 1
     8    3    4 1
     9    3   19 1
    10    3   20 1
    11    4   12 1
    12    4    5 1
    13    4   21 1
    14    5    6 1
    15    5    9 1
    16    5   22 1
    17    6    7 1
    18    6   23 1
    19    6   24 1
    20    7    8 1
    21    7   25 1
    22    8   26 1
    23    8   27 1
    24    8   28 1
    25    9   10 1
    26    9   32 1
    27   10   11 1
    28   10   14 2
    29   11   12 1
    30   11   33 1
    31   12   13 2
    32   13   29 1
    33   13   30 1
    34   14   31 1
@<TRIPOS>MOLECULE
CHEMBL82825__27
   33    34     0     0     0
SMALL
USER_CHARGES

@<TRIPOS>ATOM
      1 C1         -0.0187    1.5258    0.0104 C.3       1 <0>        -0.1637
      2 C2          0.0021   -0.0041    0.0020 C.3       1 <0>        -0.0859
      3 C3          0.7019   -0.4953   -1.2708 C.3       1 <0>        -0.1140
      4 C4          2.1372    0.0206   -1.2640 C.3       1 <0>        -0.1264
      5 C5          2.8643   -0.5560   -0.0452 C.3       1 <0>         0.1016
      6 C6          2.1985   -0.0289    1.2213 C.3       1 <0>        -0.0960
      7 C7          0.7418   -0.5069    1.2412 C.3       1 <0>        -0.0901
      8 C8          0.0499    0.0289    2.4962 C.3       1 <0>        -0.1542
      9 N1          4.2768   -0.1992   -0.1249 N.2       1 <0>        -0.5560
     10 C9          4.8665   -0.1760   -1.2926 C.2       1 <0>         0.5821
     11 N2          4.1993   -0.4380   -2.4420 N.pl3     1 <0>        -0.6001
     12 C10         2.8909   -0.3790   -2.5022 C.cat     1 <0>         0.5623
     13 N3          2.2320   -0.6718   -3.6553 N.pl3     1 <0>        -0.7492
     14 N4          6.2111    0.1255   -1.3554 N.pl3     1 <0>        -0.8216
     15 H1          1.0039    1.9031    0.0027 H         1 <0>         0.0558
     16 H2         -0.5459    1.8868   -0.8726 H         1 <0>         0.0599
     17 H3         -0.5289    1.8773    0.9072 H         1 <0>         0.0741
     18 H4         -1.0214   -0.3789    0.0158 H         1 <0>         0.0939
     19 H5          0.7046   -1.5851   -1.2898 H         1 <0>         0.0883
     20 H6          0.1792   -0.1121   -2.1472 H         1 <0>         0.0836
     21 H7          2.1286    1.1075   -1.1830 H         1 <0>         0.1541
     22 H8          2.7803   -1.6426   -0.0640 H         1 <0>         0.0928
     23 H9          2.7218   -0.4128    2.0970 H         1 <0>         0.0918
     24 H10         2.2264    1.0608    1.2233 H         1 <0>         0.0807
     25 H11         0.7197   -1.5965    1.2572 H         1 <0>         0.0784
     26 H12        -0.9818   -0.3219    2.5202 H         1 <0>         0.0627
     27 H13         0.5758   -0.3285    3.3816 H         1 <0>         0.0625
     28 H14         0.0629    1.1187    2.4811 H         1 <0>         0.0632
     29 H15         1.2637   -0.6243   -3.6862 H         1 <0>         0.4515
     30 H16         2.7305   -0.9283   -4.4470 H         1 <0>         0.4330
     31 H17         6.7039    0.3160   -0.5419 H         1 <0>         0.4393
     32 H18         6.6638    0.1471   -2.2130 H         1 <0>         0.4155
     33 H19         4.7004   -0.6744   -3.2381 H         1 <0>         0.4301
@<TRIPOS>BOND
     1    1    2 1
     2    1   15 1
     3    1   16 1
     4    1   17 1
     5    2    7 1
     6    2    3 1
     7    2   18 1
     8    3    4 1
     9    3   19 1
    10    3   20 1
    11    4   12 1
    12    4    5 1
    13    4   21 1
    14    5    6 1
    15    5    9 1
    16    5   22 1
    17    6    7 1
    18    6   23 1
    19    6   24 1
    20    7    8 1
    21    7   25 1
    22    8   26 1
    23    8   27 1
    24    8   28 1
    25    9   10 2
    26   10   11 1
    27   10   14 1
    28   11   12 2
    29   11   33 1
    30   12   13 1
    31   13   29 1
    32   13   30 1
    33   14   31 1
    34   14   32 1
@<TRIPOS>MOLECULE
CHEMBL82825__28
   33    34     0     0     0
SMALL
USER_CHARGES

@<TRIPOS>ATOM
      1 C1         -0.0187    1.5258    0.0104 C.3       1 <0>        -0.1574
      2 C2          0.0021   -0.0041    0.0020 C.3       1 <0>        -0.1049
      3 C3          0.7281   -0.4992   -1.2498 C.3       1 <0>        -0.1363
      4 C4          0.7684   -2.0209   -1.2673 C.3       1 <0>        -0.1033
      5 C5          1.4545   -2.5646   -0.0090 C.3       1 <0>         0.1682
      6 C6          0.7352   -2.0417    1.2374 C.3       1 <0>        -0.1410
      7 C7          0.7422   -0.5132    1.2418 C.3       1 <0>        -0.0869
      8 C8          0.0409   -0.0022    2.5019 C.3       1 <0>        -0.1549
      9 N1          1.3142   -4.0356   -0.0284 N.pl3     1 <0>        -0.7347
     10 C9          0.0351   -4.5459   -0.1897 C.2       1 <0>         0.6100
     11 N2         -0.7565   -3.9631   -1.1761 N.pl3     1 <0>        -0.6992
     12 C10        -0.6321   -2.5877   -1.3317 C.cat     1 <0>         0.5679
     13 N3         -1.6621   -1.8307   -1.5220 N.pl3     1 <0>        -0.6895
     14 N4         -0.4056   -5.5253    0.5471 N.2       1 <0>        -0.6651
     15 H1          1.0039    1.9031    0.0027 H         1 <0>         0.0693
     16 H2         -0.5459    1.8868   -0.8726 H         1 <0>         0.0610
     17 H3         -0.5289    1.8773    0.9072 H         1 <0>         0.0712
     18 H4         -1.0200   -0.3827    0.0063 H         1 <0>         0.0611
     19 H5          0.2042   -0.1416   -2.1362 H         1 <0>         0.0860
     20 H6          1.7466   -0.1109   -1.2539 H         1 <0>         0.1176
     21 H7          1.3311   -2.3550   -2.1390 H         1 <0>         0.1573
     22 H8          2.5035   -2.2689    0.0077 H         1 <0>         0.1413
     23 H9         -0.2947   -2.3987    1.2373 H         1 <0>         0.0574
     24 H10         1.2435   -2.4084    2.1291 H         1 <0>         0.0962
     25 H11         1.7711   -0.1536    1.2251 H         1 <0>         0.0914
     26 H12        -0.9868   -0.3652    2.5182 H         1 <0>         0.0531
     27 H13         0.5685   -0.3652    3.3839 H         1 <0>         0.0648
     28 H14         0.0412    1.0878    2.5012 H         1 <0>         0.0691
     29 H15        -1.5475   -0.8733   -1.6276 H         1 <0>         0.4526
     30 H16        -2.5498   -2.2199   -1.5591 H         1 <0>         0.4362
     31 H17        -1.3045   -5.8651    0.4152 H         1 <0>         0.3639
     32 H18         2.0834   -4.6188    0.0673 H         1 <0>         0.4359
     33 H19        -1.3611   -4.4878   -1.7238 H         1 <0>         0.4417
@<TRIPOS>BOND
     1    1    2 1
     2    1   15 1
     3    1   16 1
     4    1   17 1
     5    2    7 1
     6    2    3 1
     7    2   18 1
     8    3    4 1
     9    3   19 1
    10    3   20 1
    11    4   12 1
    12    4    5 1
    13    4   21 1
    14    5    6 1
    15    5    9 1
    16    5   22 1
    17    6    7 1
    18    6   23 1
    19    6   24 1
    20    7    8 1
    21    7   25 1
    22    8   26 1
    23    8   27 1
    24    8   28 1
    25    9   10 1
    26    9   32 1
    27   10   11 1
    28   10   14 2
    29   11   12 1
    30   11   33 1
    31   12   13 2
    32   13   29 1
    33   13   30 1
    34   14   31 1
@<TRIPOS>MOLECULE
CHEMBL82825__29
   33    34     0     0     0
SMALL
USER_CHARGES

@<TRIPOS>ATOM
      1 C1          0.0536    1.5291   -0.0261 C.3       1 <0>        -0.1600
      2 C2          0.0733   -0.0008   -0.0365 C.3       1 <0>        -0.0835
      3 C3          0.8647   -0.4933   -1.2477 C.3       1 <0>        -0.1140
      4 C4          2.2952    0.0506   -1.1951 C.3       1 <0>        -0.1069
      5 C5          2.9698   -0.3886    0.1063 C.3       1 <0>         0.1006
      6 C6          2.1625    0.0500    1.3194 C.3       1 <0>        -0.0980
      7 C7          0.7424   -0.5127    1.2420 C.3       1 <0>        -0.0905
      8 C8          0.7980   -2.0414    1.2140 C.3       1 <0>        -0.1455
      9 N1          3.1480   -1.8397    0.0875 N.2       1 <0>        -0.5361
     10 C9          3.4355   -2.4451   -1.0349 C.2       1 <0>         0.5669
     11 N2          3.5976   -1.7498   -2.1882 N.pl3     1 <0>        -0.5962
     12 C10         3.0728   -0.5621   -2.3422 C.cat     1 <0>         0.5516
     13 N3          3.2223    0.1126   -3.5136 N.pl3     1 <0>        -0.7522
     14 N4          3.5771   -3.8171   -1.0466 N.pl3     1 <0>        -0.8225
     15 H1          1.0753    1.9053    0.0243 H         1 <0>         0.0577
     16 H2         -0.4229    1.8925   -0.9366 H         1 <0>         0.0599
     17 H3         -0.5058    1.8793    0.8414 H         1 <0>         0.0690
     18 H4         -0.9480   -0.3780   -0.0894 H         1 <0>         0.0902
     19 H5          0.8916   -1.5829   -1.2435 H         1 <0>         0.0811
     20 H6          0.3800   -0.1485   -2.1611 H         1 <0>         0.0828
     21 H7          2.2881    1.1370   -1.2826 H         1 <0>         0.1492
     22 H8          3.9574    0.0695    0.1596 H         1 <0>         0.0917
     23 H9          2.6462   -0.3142    2.2258 H         1 <0>         0.0903
     24 H10         2.1183    1.1387    1.3491 H         1 <0>         0.0861
     25 H11         0.1714   -0.1827    2.1099 H         1 <0>         0.0852
     26 H12         1.2447   -2.3716    0.2762 H         1 <0>         0.0641
     27 H13         1.4008   -2.3984    2.0491 H         1 <0>         0.0634
     28 H14        -0.2118   -2.4434    1.2968 H         1 <0>         0.0479
     29 H15         2.8295    0.9931   -3.6197 H         1 <0>         0.4518
     30 H16         3.7216   -0.2868   -4.2430 H         1 <0>         0.4322
     31 H17         3.4635   -4.3234   -0.2270 H         1 <0>         0.4386
     32 H18         3.7903   -4.2757   -1.8743 H         1 <0>         0.4152
     33 H19         4.1122   -2.1405   -2.9116 H         1 <0>         0.4299
@<TRIPOS>BOND
     1    1    2 1
     2    1   15 1
     3    1   16 1
     4    1   17 1
     5    2    7 1
     6    2    3 1
     7    2   18 1
     8    3    4 1
     9    3   19 1
    10    3   20 1
    11    4   12 1
    12    4    5 1
    13    4   21 1
    14    5    6 1
    15    5    9 1
    16    5   22 1
    17    6    7 1
    18    6   23 1
    19    6   24 1
    20    7    8 1
    21    7   25 1
    22    8   26 1
    23    8   27 1
    24    8   28 1
    25    9   10 2
    26   10   11 1
    27   10   14 1
    28   11   12 2
    29   11   33 1
    30   12   13 1
    31   13   29 1
    32   13   30 1
    33   14   31 1
    34   14   32 1
@<TRIPOS>MOLECULE
CHEMBL82825__30
   33    34     0     0     0
SMALL
USER_CHARGES

@<TRIPOS>ATOM
      1 C1         -0.0187    1.5258    0.0104 C.3       1 <0>        -0.1628
      2 C2          0.0021   -0.0041    0.0020 C.3       1 <0>        -0.0839
      3 C3          0.7241   -0.4982   -1.2513 C.3       1 <0>        -0.1080
      4 C4          2.1549    0.0461   -1.2793 C.3       1 <0>        -0.1019
      5 C5          2.9022   -0.4017   -0.0181 C.3       1 <0>         0.1626
      6 C6          2.1659    0.0468    1.2367 C.3       1 <0>        -0.1262
      7 C7          0.7423   -0.5125    1.2419 C.3       1 <0>        -0.0885
      8 C8          0.0125   -0.0432    2.5021 C.3       1 <0>        -0.1555
      9 N1          3.0359   -1.8643   -0.0445 N.pl3     1 <0>        -0.7756
     10 C9          3.5722   -2.4331   -1.1914 C.2       1 <0>         0.6043
     11 N2          3.1102   -1.9390   -2.4086 N.pl3     1 <0>        -0.6475
     12 C10         2.8666   -0.5737   -2.4715 C.cat     1 <0>         0.5679
     13 N3          3.2263    0.1342   -3.4911 N.pl3     1 <0>        -0.6808
     14 N4          4.4626   -3.3818   -1.1321 N.2       1 <0>        -0.6832
     15 H1          1.0039    1.9031    0.0027 H         1 <0>         0.0576
     16 H2         -0.5459    1.8868   -0.8726 H         1 <0>         0.0605
     17 H3         -0.5289    1.8773    0.9072 H         1 <0>         0.0716
     18 H4         -1.0202   -0.3822    0.0075 H         1 <0>         0.0916
     19 H5          0.7515   -1.5879   -1.2471 H         1 <0>         0.0846
     20 H6          0.1888   -0.1546   -2.1364 H         1 <0>         0.0820
     21 H7          2.1476    1.1329   -1.3619 H         1 <0>         0.1435
     22 H8          3.8995    0.0380   -0.0212 H         1 <0>         0.0877
     23 H9          2.6988   -0.3138    2.1165 H         1 <0>         0.0898
     24 H10         2.1262    1.1358    1.2624 H         1 <0>         0.0964
     25 H11         0.7784   -1.6018    1.2240 H         1 <0>         0.0758
     26 H12        -1.0044   -0.4357    2.5005 H         1 <0>         0.0622
     27 H13         0.5405   -0.4059    3.3841 H         1 <0>         0.0610
     28 H14        -0.0185    1.0462    2.5196 H         1 <0>         0.0637
     29 H15         3.0435    1.0867   -3.5090 H         1 <0>         0.4552
     30 H16         3.6790   -0.2869   -4.2385 H         1 <0>         0.4397
     31 H17         4.7670   -3.7081   -0.2708 H         1 <0>         0.3796
     32 H18         2.7610   -2.4101    0.7087 H         1 <0>         0.4263
     33 H19         2.9665   -2.5186   -3.1729 H         1 <0>         0.4502
@<TRIPOS>BOND
     1    1    2 1
     2    1   15 1
     3    1   16 1
     4    1   17 1
     5    2    7 1
     6    2    3 1
     7    2   18 1
     8    3    4 1
     9    3   19 1
    10    3   20 1
    11    4   12 1
    12    4    5 1
    13    4   21 1
    14    5    6 1
    15    5    9 1
    16    5   22 1
    17    6    7 1
    18    6   23 1
    19    6   24 1
    20    7    8 1
    21    7   25 1
    22    8   26 1
    23    8   27 1
    24    8   28 1
    25    9   10 1
    26    9   32 1
    27   10   11 1
    28   10   14 2
    29   11   12 1
    30   11   33 1
    31   12   13 2
    32   13   29 1
    33   13   30 1
    34   14   31 1
@<TRIPOS>MOLECULE
CHEMBL82825__31
   33    34     0     0     0
SMALL
USER_CHARGES

@<TRIPOS>ATOM
      1 C1         -0.0187    1.5258    0.0104 C.3       1 <0>        -0.1618
      2 C2          0.0021   -0.0041    0.0020 C.3       1 <0>        -0.0840
      3 C3          0.7249   -0.4983   -1.2507 C.3       1 <0>        -0.1096
      4 C4          2.1555    0.0470   -1.2795 C.3       1 <0>        -0.1077
      5 C5          2.9024   -0.3888   -0.0170 C.3       1 <0>         0.1007
      6 C6          2.1640    0.0515    1.2385 C.3       1 <0>        -0.0973
      7 C7          0.7424   -0.5127    1.2420 C.3       1 <0>        -0.0865
      8 C8          0.0100   -0.0478    2.5023 C.3       1 <0>        -0.1537
      9 N1          3.0809   -1.8397   -0.0429 N.2       1 <0>        -0.5488
     10 C9          3.3056   -2.4472   -1.1785 C.2       1 <0>         0.5779
     11 N2          3.4020   -1.7541   -2.3404 N.pl3     1 <0>        -0.5981
     12 C10         2.8682   -0.5672   -2.4671 C.cat     1 <0>         0.5535
     13 N3          2.9510    0.1051   -3.6464 N.pl3     1 <0>        -0.7514
     14 N4          3.4479   -3.8191   -1.1953 N.pl3     1 <0>        -0.8215
     15 H1          1.0039    1.9031    0.0027 H         1 <0>         0.0575
     16 H2         -0.5459    1.8868   -0.8726 H         1 <0>         0.0591
     17 H3         -0.5289    1.8773    0.9072 H         1 <0>         0.0722
     18 H4         -1.0202   -0.3824    0.0072 H         1 <0>         0.0902
     19 H5          0.7532   -1.5879   -1.2458 H         1 <0>         0.0762
     20 H6          0.1893   -0.1559   -2.1361 H         1 <0>         0.0836
     21 H7          2.1423    1.1333   -1.3687 H         1 <0>         0.1495
     22 H8          3.8910    0.0704   -0.0202 H         1 <0>         0.0909
     23 H9          2.6981   -0.3103    2.1170 H         1 <0>         0.0899
     24 H10         2.1204    1.1402    1.2685 H         1 <0>         0.0860
     25 H11         0.7820   -1.6018    1.2221 H         1 <0>         0.0820
     26 H12        -1.0058   -0.4431    2.4989 H         1 <0>         0.0598
     27 H13         0.5381   -0.4106    3.3841 H         1 <0>         0.0611
     28 H14        -0.0241    1.0415    2.5217 H         1 <0>         0.0611
     29 H15         2.5519    0.9851   -3.7321 H         1 <0>         0.4521
     30 H16         3.4091   -0.2953   -4.4019 H         1 <0>         0.4325
     31 H17         3.3810   -4.3238   -0.3696 H         1 <0>         0.4391
     32 H18         3.6149   -4.2791   -2.0328 H         1 <0>         0.4155
     33 H19         3.8758   -2.1459   -3.0908 H         1 <0>         0.4300
@<TRIPOS>BOND
     1    1    2 1
     2    1   15 1
     3    1   16 1
     4    1   17 1
     5    2    7 1
     6    2    3 1
     7    2   18 1
     8    3    4 1
     9    3   19 1
    10    3   20 1
    11    4   12 1
    12    4    5 1
    13    4   21 1
    14    5    6 1
    15    5    9 1
    16    5   22 1
    17    6    7 1
    18    6   23 1
    19    6   24 1
    20    7    8 1
    21    7   25 1
    22    8   26 1
    23    8   27 1
    24    8   28 1
    25    9   10 2
    26   10   11 1
    27   10   14 1
    28   11   12 2
    29   11   33 1
    30   12   13 1
    31   13   29 1
    32   13   30 1
    33   14   31 1
    34   14   32 1
@<TRIPOS>MOLECULE
CHEMBL7492
   43    45     0     0     0
SMALL
USER_CHARGES

@<TRIPOS>ATOM
      1 C1          0.6019    1.5059    0.0255 C.3       1 <0>        -0.1555
      2 C2          0.5970   -0.0011    0.0166 C.ar      1 <0>         0.0410
      3 C3          0.7699   -0.7002   -1.1494 C.ar      1 <0>        -0.1796
      4 C4          0.7619   -2.0894   -1.1309 C.ar      1 <0>         0.2065
      5 N1          0.5916   -2.7658   -0.0168 N.ar      1 <0>        -0.4912
      6 C5          0.4182   -2.1439    1.1496 C.ar      1 <0>         0.4074
      7 C6          0.4215   -0.7279    1.1995 C.ar      1 <0>        -0.2762
      8 C7          0.2403   -0.0941    2.4537 C.ar      1 <0>         0.5214
      9 N2          0.0805   -0.8575    3.5254 N.ar      1 <0>        -0.6183
     10 C8          0.0886   -2.1844    3.4358 C.ar      1 <0>         0.6202
     11 N3          0.2432   -2.8239    2.2916 N.ar      1 <0>        -0.5912
     12 N4         -0.0830   -2.9256    4.5892 N.pl3     1 <0>        -0.8134
     13 N5          0.2308    1.2796    2.5567 N.pl3     1 <0>        -0.8464
     14 C9          0.9679    0.0364   -2.4491 C.3       1 <0>        -0.0233
     15 C10         2.4249    0.3852   -2.6119 C.ar      1 <0>        -0.0700
     16 C11         2.8872    1.6246   -2.2137 C.ar      1 <0>        -0.1143
     17 C12         4.2281    1.9454   -2.3631 C.ar      1 <0>         0.0938
     18 C13         5.1052    1.0217   -2.9124 C.ar      1 <0>        -0.1706
     19 C14         4.6431   -0.2174   -3.3105 C.ar      1 <0>        -0.1650
     20 C15         3.3028   -0.5402   -3.1562 C.ar      1 <0>         0.1002
     21 O1          2.8488   -1.7623   -3.5430 O.3       1 <0>        -0.3124
     22 C16         3.8083   -2.6657   -4.0955 C.3       1 <0>         0.0265
     23 O2          4.6830    3.1656   -1.9715 O.3       1 <0>        -0.3178
     24 C17         6.0757    3.4282   -2.1548 C.3       1 <0>         0.0274
     25 H1          1.5935    1.8644    0.3017 H         1 <0>         0.0865
     26 H2          0.3452    1.8760   -0.9671 H         1 <0>         0.0850
     27 H3         -0.1296    1.8673    0.7483 H         1 <0>         0.0982
     28 H4          0.8989   -2.6280   -2.0570 H         1 <0>         0.1679
     29 H5         -0.2060   -2.4769    5.4403 H         1 <0>         0.4150
     30 H6         -0.0806   -3.8947    4.5478 H         1 <0>         0.4177
     31 H7         -0.4109    1.7180    3.1371 H         1 <0>         0.4095
     32 H8          0.8658    1.8084    2.0488 H         1 <0>         0.4181
     33 H9          0.6512   -0.5971   -3.2777 H         1 <0>         0.0935
     34 H10         0.3741    0.9504   -2.4429 H         1 <0>         0.0880
     35 H11         2.2043    2.3439   -1.7864 H         1 <0>         0.1387
     36 H12         6.1494    1.2716   -3.0291 H         1 <0>         0.1301
     37 H13         5.3258   -0.9363   -3.7388 H         1 <0>         0.1317
     38 H14         3.3157   -3.6009   -4.3615 H         1 <0>         0.1026
     39 H15         4.2532   -2.2230   -4.9867 H         1 <0>         0.0545
     40 H16         4.5880   -2.8623   -3.3596 H         1 <0>         0.0540
     41 H17         6.3053    4.4336   -1.8021 H         1 <0>         0.1008
     42 H18         6.6598    2.7024   -1.5889 H         1 <0>         0.0541
     43 H19         6.3242    3.3487   -3.2131 H         1 <0>         0.0550
@<TRIPOS>BOND
     1    1    2 1
     2    1   25 1
     3    1   26 1
     4    1   27 1
     5    2    7 ar
     6    2    3 ar
     7    3    4 ar
     8    3   14 1
     9    4    5 ar
    10    4   28 1
    11    5    6 ar
    12    6   11 ar
    13    6    7 ar
    14    7    8 ar
    15    8    9 ar
    16    8   13 1
    17    9   10 ar
    18   10   11 ar
    19   10   12 1
    20   12   29 1
    21   12   30 1
    22   13   31 1
    23   13   32 1
    24   14   15 1
    25   14   33 1
    26   14   34 1
    27   15   20 ar
    28   15   16 ar
    29   16   17 ar
    30   16   35 1
    31   17   18 ar
    32   17   23 1
    33   18   19 ar
    34   18   36 1
    35   19   20 ar
    36   19   37 1
    37   20   21 1
    38   21   22 1
    39   22   38 1
    40   22   39 1
    41   22   40 1
    42   23   24 1
    43   24   41 1
    44   24   42 1
    45   24   43 1
@<TRIPOS>MOLECULE
CHEMBL7492__1
   44    46     0     0     0
SMALL
USER_CHARGES

@<TRIPOS>ATOM
      1 C1          0.6019    1.5059    0.0255 C.3       1 <0>        -0.1699
      2 C2          0.5970   -0.0011    0.0166 C.ar      1 <0>         0.0598
      3 C3          0.7699   -0.7002   -1.1494 C.ar      1 <0>        -0.1361
      4 C4          0.7619   -2.0894   -1.1309 C.ar      1 <0>         0.2332
      5 N1          0.5916   -2.7658   -0.0168 N.ar      1 <0>        -0.4986
      6 C5          0.4182   -2.1439    1.1496 C.ar      1 <0>         0.3944
      7 C6          0.4215   -0.7279    1.1995 C.ar      1 <0>        -0.2354
      8 C7          0.2403   -0.0941    2.4537 C.ar      1 <0>         0.5776
      9 N2          0.0805   -0.8575    3.5254 N.ar      1 <0>        -0.5800
     10 C8          0.0886   -2.1844    3.4358 C.ar      1 <0>         0.6973
     11 N3          0.2432   -2.8239    2.2916 N.ar      1 <0>        -0.5709
     12 N4         -0.0830   -2.9256    4.5892 N.pl3     1 <0>        -0.7805
     13 N5          0.2308    1.2796    2.5567 N.pl3     1 <0>        -0.8040
     14 C9          0.9679    0.0364   -2.4491 C.3       1 <0>        -0.0326
     15 C10         2.4249    0.3852   -2.6119 C.ar      1 <0>        -0.0855
     16 C11         2.8872    1.6246   -2.2137 C.ar      1 <0>        -0.1162
     17 C12         4.2281    1.9454   -2.3631 C.ar      1 <0>         0.0991
     18 C13         5.1052    1.0217   -2.9124 C.ar      1 <0>        -0.1627
     19 C14         4.6431   -0.2174   -3.3105 C.ar      1 <0>        -0.1601
     20 C15         3.3028   -0.5402   -3.1562 C.ar      1 <0>         0.0993
     21 O1          2.8488   -1.7623   -3.5430 O.3       1 <0>        -0.3191
     22 C16         3.8083   -2.6657   -4.0955 C.3       1 <0>         0.0245
     23 O2          4.6830    3.1656   -1.9715 O.3       1 <0>        -0.3165
     24 C17         6.0757    3.4282   -2.1548 C.3       1 <0>         0.0252
     25 H1          1.5935    1.8644    0.3017 H         1 <0>         0.1061
     26 H2          0.3452    1.8760   -0.9671 H         1 <0>         0.1059
     27 H3         -0.1296    1.8673    0.7483 H         1 <0>         0.1048
     28 H4          0.8989   -2.6280   -2.0570 H         1 <0>         0.1940
     29 H5         -0.2060   -2.4769    5.4403 H         1 <0>         0.4472
     30 H6         -0.0806   -3.8947    4.5478 H         1 <0>         0.4328
     31 H7         -0.4109    1.7180    3.1371 H         1 <0>         0.4298
     32 H8          0.8658    1.8084    2.0488 H         1 <0>         0.4359
     33 H9          0.6512   -0.5971   -3.2777 H         1 <0>         0.1060
     34 H10         0.3741    0.9504   -2.4429 H         1 <0>         0.1007
     35 H11         2.2043    2.3439   -1.7864 H         1 <0>         0.1397
     36 H12         6.1494    1.2716   -3.0291 H         1 <0>         0.1350
     37 H13         5.3258   -0.9363   -3.7388 H         1 <0>         0.1356
     38 H14         4.2532   -2.2230   -4.9867 H         1 <0>         0.0596
     39 H15         4.5880   -2.8623   -3.3596 H         1 <0>         0.0556
     40 H16         3.3157   -3.6009   -4.3615 H         1 <0>         0.1053
     41 H17         6.6598    2.7024   -1.5889 H         1 <0>         0.0559
     42 H18         6.3242    3.3487   -3.2131 H         1 <0>         0.0585
     43 H19         6.3053    4.4336   -1.8021 H         1 <0>         0.1051
     44 H20         0.2412   -3.7938    2.2786 H         1 <0>         0.4445
@<TRIPOS>BOND
     1    1    2 1
     2    1   25 1
     3    1   26 1
     4    1   27 1
     5    2    7 ar
     6    2    3 ar
     7    3    4 ar
     8    3   14 1
     9    4    5 ar
    10    4   28 1
    11    5    6 ar
    12    6   11 ar
    13    6    7 ar
    14    7    8 ar
    15    8    9 ar
    16    8   13 1
    17    9   10 ar
    18   10   11 ar
    19   10   12 1
    20   11   44 1
    21   12   29 1
    22   12   30 1
    23   13   31 1
    24   13   32 1
    25   14   15 1
    26   14   33 1
    27   14   34 1
    28   15   20 ar
    29   15   16 ar
    30   16   17 ar
    31   16   35 1
    32   17   18 ar
    33   17   23 1
    34   18   19 ar
    35   18   36 1
    36   19   20 ar
    37   19   37 1
    38   20   21 1
    39   21   22 1
    40   22   38 1
    41   22   39 1
    42   22   40 1
    43   23   24 1
    44   24   41 1
    45   24   42 1
    46   24   43 1
@<TRIPOS>MOLECULE
CHEMBL226953
   42    45     0     0     0
SMALL
USER_CHARGES

@<TRIPOS>ATOM
      1 C1         -0.3045    1.8344   -0.0893 C.3       1 <0>        -0.1533
      2 C2         -0.0976    0.3196   -0.0281 C.3       1 <0>        -0.0751
      3 C3         -1.4375   -0.3693    0.0065 C.2       1 <0>        -0.0087
      4 C4         -2.2104   -0.7149    1.1996 C.ar      1 <0>        -0.2568
      5 C5         -2.0222   -0.5576    2.5815 C.ar      1 <0>         0.5836
      6 N1         -2.9644   -1.0070    3.4042 N.ar      1 <0>        -0.5874
      7 C6         -4.0592   -1.5915    2.9339 C.ar      1 <0>         0.6999
      8 N2         -4.2750   -1.7596    1.6404 N.ar      1 <0>        -0.5738
      9 C7         -3.3845   -1.3396    0.7427 C.ar      1 <0>         0.3594
     10 N3         -3.3248   -1.3691   -0.6267 N.pl3     1 <0>        -0.5183
     11 H1         -4.0063   -1.7454   -1.2054 H         1 <0>         0.4387
     12 C8         -2.1596   -0.7819   -1.0590 C.2       1 <0>         0.0021
     13 S1         -1.6789   -0.5990   -2.7442 S.3       1 <0>         0.0969
     14 C9         -0.4794   -1.8671   -2.9853 C.ar      1 <0>        -0.1302
     15 C10        -0.2367   -2.7953   -1.9645 C.ar      1 <0>        -0.1252
     16 C11         0.6827   -3.7830   -2.1232 C.ar      1 <0>        -0.0794
     17 C12         1.4048   -3.8824   -3.3259 C.ar      1 <0>        -0.0489
     18 C13         2.3610   -4.8940   -3.5175 C.ar      1 <0>        -0.1079
     19 C14         3.0430   -4.9633   -4.6935 C.ar      1 <0>        -0.1048
     20 C15         2.8080   -4.0445   -5.7148 C.ar      1 <0>        -0.1045
     21 C16         1.8900   -3.0511   -5.5654 C.ar      1 <0>        -0.1052
     22 C17         1.1657   -2.9479   -4.3647 C.ar      1 <0>        -0.0381
     23 C18         0.2067   -1.9393   -4.1786 C.ar      1 <0>        -0.0630
     24 N4         -5.0126   -2.0434    3.8332 N.pl3     1 <0>        -0.7889
     25 N5         -0.8813    0.0511    3.0763 N.pl3     1 <0>        -0.7734
     26 H2          0.6646    2.3327   -0.1143 H         1 <0>         0.0770
     27 H3         -0.8669    2.0883   -0.9877 H         1 <0>         0.0709
     28 H4         -0.8585    2.1612    0.7907 H         1 <0>         0.0558
     29 H5          0.4564   -0.0072   -0.9081 H         1 <0>         0.1005
     30 H6          0.4648    0.0657    0.8703 H         1 <0>         0.0781
     31 H7         -0.7878   -2.7245   -1.0384 H         1 <0>         0.1149
     32 H8          0.8590   -4.4906   -1.3266 H         1 <0>         0.1312
     33 H9          2.5544   -5.6130   -2.7351 H         1 <0>         0.1305
     34 H10         3.7775   -5.7419   -4.8372 H         1 <0>         0.1296
     35 H11         3.3628   -4.1219   -6.6382 H         1 <0>         0.1306
     36 H12         1.7184   -2.3458   -6.3651 H         1 <0>         0.1332
     37 H13         0.0110   -1.2232   -4.9630 H         1 <0>         0.1379
     38 H14        -4.8726   -1.9297    4.7863 H         1 <0>         0.4472
     39 H15        -5.8196   -2.4732    3.5094 H         1 <0>         0.4301
     40 H16        -0.2006    0.3748    2.4657 H         1 <0>         0.4298
     41 H17        -0.7627    0.1540    4.0335 H         1 <0>         0.4296
     42 H18        -5.0900   -2.1928    1.3419 H         1 <0>         0.4356
@<TRIPOS>BOND
     1    1    2 1
     2    1   26 1
     3    1   27 1
     4    1   28 1
     5    2    3 1
     6    2   29 1
     7    2   30 1
     8    3   12 2
     9    3    4 1
    10    4    9 ar
    11    4    5 ar
    12    5    6 ar
    13    5   25 1
    14    6    7 ar
    15    7    8 ar
    16    7   24 1
    17    8    9 ar
    18    8   42 1
    19    9   10 1
    20   10   11 1
    21   10   12 1
    22   12   13 1
    23   13   14 1
    24   14   23 ar
    25   14   15 ar
    26   15   16 ar
    27   15   31 1
    28   16   17 ar
    29   16   32 1
    30   17   22 ar
    31   17   18 ar
    32   18   19 ar
    33   18   33 1
    34   19   20 ar
    35   19   34 1
    36   20   21 ar
    37   20   35 1
    38   21   22 ar
    39   21   36 1
    40   22   23 ar
    41   23   37 1
    42   24   38 1
    43   24   39 1
    44   25   40 1
    45   25   41 1
@<TRIPOS>MOLECULE
CHEMBL151367
   44    47     0     0     0
SMALL
USER_CHARGES

@<TRIPOS>ATOM
      1 C1          0.6027    1.5059    0.0256 C.3       1 <0>        -0.1676
      2 C2          0.5978   -0.0011    0.0167 C.ar      1 <0>         0.0772
      3 C3          0.7711   -0.7002   -1.1492 C.ar      1 <0>        -0.1735
      4 C4          0.7631   -2.0894   -1.1308 C.ar      1 <0>         0.2397
      5 N1          0.5923   -2.7658   -0.0167 N.ar      1 <0>        -0.4987
      6 C5          0.4186   -2.1439    1.1496 C.ar      1 <0>         0.4074
      7 C6          0.4219   -0.7279    1.1996 C.ar      1 <0>        -0.2408
      8 C7          0.2403   -0.0941    2.4537 C.ar      1 <0>         0.5787
      9 N2          0.0801   -0.8575    3.5253 N.ar      1 <0>        -0.5782
     10 C8          0.0882   -2.1844    3.4357 C.ar      1 <0>         0.6996
     11 N3          0.2432   -2.8239    2.2916 N.ar      1 <0>        -0.5723
     12 N4         -0.0838   -2.9256    4.5891 N.pl3     1 <0>        -0.7769
     13 N5          0.2308    1.2796    2.5567 N.pl3     1 <0>        -0.8022
     14 C9          0.9696    0.0364   -2.4489 C.3       1 <0>         0.1674
     15 N6          2.3622    0.4797   -2.5512 N.pl3     1 <0>        -0.7504
     16 C10         2.7883    1.1884   -3.6761 C.ar      1 <0>         0.2102
     17 C11         1.8772    1.4767   -4.6998 C.ar      1 <0>        -0.1746
     18 C12         2.2644    2.1649   -5.8059 C.ar      1 <0>        -0.0561
     19 C13         3.5963    2.5975   -5.9318 C.ar      1 <0>        -0.0928
     20 C14         4.0245    3.3114   -7.0641 C.ar      1 <0>        -0.0910
     21 C15         5.3207    3.7163   -7.1554 C.ar      1 <0>        -0.1322
     22 C16         6.2341    3.4340   -6.1412 C.ar      1 <0>        -0.0980
     23 C17         5.8561    2.7447   -5.0304 C.ar      1 <0>        -0.1267
     24 C18         4.5252    2.3104   -4.9004 C.ar      1 <0>        -0.0033
     25 C19         4.0992    1.6018   -3.7652 C.ar      1 <0>        -0.1954
     26 H1          1.5940    1.8644    0.3030 H         1 <0>         0.1068
     27 H2          0.3472    1.8760   -0.9673 H         1 <0>         0.1066
     28 H3         -0.1295    1.8674    0.7476 H         1 <0>         0.1057
     29 H4          0.9004   -2.6280   -2.0567 H         1 <0>         0.1945
     30 H5         -0.2071   -2.4769    5.4402 H         1 <0>         0.4484
     31 H6         -0.0814   -3.8947    4.5477 H         1 <0>         0.4340
     32 H7         -0.4109    1.7180    3.1371 H         1 <0>         0.4311
     33 H8          0.8658    1.8084    2.0488 H         1 <0>         0.4362
     34 H9          0.7374   -0.6273   -3.2818 H         1 <0>         0.0841
     35 H10         0.3092    0.9030   -2.4798 H         1 <0>         0.0842
     36 H11         2.9882    0.2808   -1.8374 H         1 <0>         0.3993
     37 H12         0.8527    1.1473   -4.6092 H         1 <0>         0.1227
     38 H13         1.5501    2.3789   -6.5872 H         1 <0>         0.1304
     39 H14         3.3284    3.5373   -7.8583 H         1 <0>         0.1266
     40 H15         5.6465    4.2644   -8.0270 H         1 <0>         0.1237
     41 H16         7.2569    3.7668   -6.2385 H         1 <0>         0.1235
     42 H17         6.5747    2.5324   -4.2526 H         1 <0>         0.1243
     43 H18         4.7950    1.3796   -2.9697 H         1 <0>         0.1223
     44 H19         0.2412   -3.7938    2.2786 H         1 <0>         0.4462
@<TRIPOS>BOND
     1    1    2 1
     2    1   26 1
     3    1   27 1
     4    1   28 1
     5    2    7 ar
     6    2    3 ar
     7    3    4 ar
     8    3   14 1
     9    4    5 ar
    10    4   29 1
    11    5    6 ar
    12    6   11 ar
    13    6    7 ar
    14    7    8 ar
    15    8    9 ar
    16    8   13 1
    17    9   10 ar
    18   10   11 ar
    19   10   12 1
    20   11   44 1
    21   12   30 1
    22   12   31 1
    23   13   32 1
    24   13   33 1
    25   14   15 1
    26   14   34 1
    27   14   35 1
    28   15   16 1
    29   15   36 1
    30   16   25 ar
    31   16   17 ar
    32   17   18 ar
    33   17   37 1
    34   18   19 ar
    35   18   38 1
    36   19   24 ar
    37   19   20 ar
    38   20   21 ar
    39   20   39 1
    40   21   22 ar
    41   21   40 1
    42   22   23 ar
    43   22   41 1
    44   23   24 ar
    45   23   42 1
    46   24   25 ar
    47   25   43 1
@<TRIPOS>MOLECULE
CHEMBL151367__1
   43    46     0     0     0
SMALL
USER_CHARGES

@<TRIPOS>ATOM
      1 C1          0.6027    1.5059    0.0256 C.3       1 <0>        -0.1540
      2 C2          0.5978   -0.0011    0.0167 C.ar      1 <0>         0.0602
      3 C3          0.7711   -0.7002   -1.1492 C.ar      1 <0>        -0.2177
      4 C4          0.7631   -2.0894   -1.1308 C.ar      1 <0>         0.2100
      5 N1          0.5923   -2.7658   -0.0167 N.ar      1 <0>        -0.4894
      6 C5          0.4186   -2.1439    1.1496 C.ar      1 <0>         0.4165
      7 C6          0.4219   -0.7279    1.1996 C.ar      1 <0>        -0.2824
      8 C7          0.2403   -0.0941    2.4537 C.ar      1 <0>         0.5247
      9 N2          0.0801   -0.8575    3.5253 N.ar      1 <0>        -0.6169
     10 C8          0.0882   -2.1844    3.4357 C.ar      1 <0>         0.6254
     11 N3          0.2432   -2.8239    2.2916 N.ar      1 <0>        -0.5914
     12 N4         -0.0838   -2.9256    4.5891 N.pl3     1 <0>        -0.8100
     13 N5          0.2308    1.2796    2.5567 N.pl3     1 <0>        -0.8449
     14 C9          0.9696    0.0364   -2.4489 C.3       1 <0>         0.1769
     15 N6          2.3622    0.4797   -2.5512 N.pl3     1 <0>        -0.7432
     16 C10         2.7883    1.1884   -3.6761 C.ar      1 <0>         0.2222
     17 C11         1.8772    1.4767   -4.6998 C.ar      1 <0>        -0.1713
     18 C12         2.2644    2.1649   -5.8059 C.ar      1 <0>        -0.0604
     19 C13         3.5963    2.5975   -5.9318 C.ar      1 <0>        -0.0988
     20 C14         4.0245    3.3114   -7.0641 C.ar      1 <0>        -0.0889
     21 C15         5.3207    3.7163   -7.1554 C.ar      1 <0>        -0.1404
     22 C16         6.2341    3.4340   -6.1412 C.ar      1 <0>        -0.1028
     23 C17         5.8561    2.7447   -5.0304 C.ar      1 <0>        -0.1262
     24 C18         4.5252    2.3104   -4.9004 C.ar      1 <0>         0.0010
     25 C19         4.0992    1.6018   -3.7652 C.ar      1 <0>        -0.2082
     26 H1          1.5940    1.8644    0.3030 H         1 <0>         0.0870
     27 H2          0.3472    1.8760   -0.9673 H         1 <0>         0.0856
     28 H3         -0.1295    1.8674    0.7476 H         1 <0>         0.0994
     29 H4          0.9004   -2.6280   -2.0567 H         1 <0>         0.1676
     30 H5         -0.2071   -2.4769    5.4402 H         1 <0>         0.4165
     31 H6         -0.0814   -3.8947    4.5477 H         1 <0>         0.4191
     32 H7         -0.4109    1.7180    3.1371 H         1 <0>         0.4110
     33 H8          0.8658    1.8084    2.0488 H         1 <0>         0.4185
     34 H9          0.7374   -0.6273   -3.2818 H         1 <0>         0.0730
     35 H10         0.3092    0.9030   -2.4798 H         1 <0>         0.0728
     36 H11         2.9882    0.2808   -1.8374 H         1 <0>         0.4004
     37 H12         0.8527    1.1473   -4.6092 H         1 <0>         0.1240
     38 H13         1.5501    2.3789   -6.5872 H         1 <0>         0.1278
     39 H14         3.3284    3.5373   -7.8583 H         1 <0>         0.1234
     40 H15         5.6465    4.2644   -8.0270 H         1 <0>         0.1197
     41 H16         7.2569    3.7668   -6.2385 H         1 <0>         0.1199
     42 H17         6.5747    2.5324   -4.2526 H         1 <0>         0.1228
     43 H18         4.7950    1.3796   -2.9697 H         1 <0>         0.1218
@<TRIPOS>BOND
     1    1    2 1
     2    1   26 1
     3    1   27 1
     4    1   28 1
     5    2    7 ar
     6    2    3 ar
     7    3    4 ar
     8    3   14 1
     9    4    5 ar
    10    4   29 1
    11    5    6 ar
    12    6   11 ar
    13    6    7 ar
    14    7    8 ar
    15    8    9 ar
    16    8   13 1
    17    9   10 ar
    18   10   11 ar
    19   10   12 1
    20   12   30 1
    21   12   31 1
    22   13   32 1
    23   13   33 1
    24   14   15 1
    25   14   34 1
    26   14   35 1
    27   15   16 1
    28   15   36 1
    29   16   25 ar
    30   16   17 ar
    31   17   18 ar
    32   17   37 1
    33   18   19 ar
    34   18   38 1
    35   19   24 ar
    36   19   20 ar
    37   20   21 ar
    38   20   39 1
    39   21   22 ar
    40   21   40 1
    41   22   23 ar
    42   22   41 1
    43   23   24 ar
    44   23   42 1
    45   24   25 ar
    46   25   43 1
@<TRIPOS>MOLECULE
CHEMBL251906
   35    37     0     0     0
SMALL
USER_CHARGES

@<TRIPOS>ATOM
      1 C1         -0.3898    1.3181   -1.2887 C.ar      1 <0>        -0.0868
      2 C2          0.6971    2.0136   -1.7851 C.ar      1 <0>        -0.1155
      3 C3          1.8289    1.3327   -2.1939 C.ar      1 <0>        -0.1109
      4 C4          1.8758   -0.0471   -2.1069 C.ar      1 <0>         0.0798
      5 C5          0.7847   -0.7471   -1.6079 C.ar      1 <0>         0.0857
      6 C6         -0.3483   -0.0602   -1.1991 C.ar      1 <0>        -0.1831
      7 O1          0.8274   -2.1032   -1.5210 O.3       1 <0>        -0.2995
      8 C7         -0.3309   -2.7566   -0.9982 C.3       1 <0>         0.0823
      9 C8         -0.1012   -4.2458   -0.9773 C.ar      1 <0>        -0.0061
     10 C9          1.0275   -4.7748   -1.5324 C.ar      1 <0>        -0.1000
     11 C10         1.2537   -6.1477   -1.5203 C.ar      1 <0>        -0.0107
     12 C11         0.3546   -7.0027   -0.9544 C.ar      1 <0>        -0.1457
     13 C12        -0.8151   -6.4931   -0.3754 C.ar      1 <0>         0.2031
     14 C13        -1.0405   -5.0951   -0.3837 C.ar      1 <0>        -0.1806
     15 C14        -2.2285   -4.6022    0.2126 C.ar      1 <0>         0.5695
     16 N1         -3.0678   -5.4727    0.7535 N.ar      1 <0>        -0.5773
     17 C15        -2.8143   -6.7786    0.7442 C.ar      1 <0>         0.6851
     18 N2         -1.7308   -7.2917    0.1935 N.ar      1 <0>        -0.5751
     19 N3         -3.7308   -7.6355    1.3262 N.pl3     1 <0>        -0.7848
     20 N4         -2.5030   -3.2516    0.2295 N.pl3     1 <0>        -0.8158
     21 F1          2.9812   -0.7129   -2.5070 F         1 <0>        -0.1282
     22 H1         -1.2709    1.8531   -0.9664 H         1 <0>         0.1382
     23 H2          0.6619    3.0908   -1.8541 H         1 <0>         0.1417
     24 H3          2.6765    1.8783   -2.5816 H         1 <0>         0.1494
     25 H4         -1.1979   -0.6022   -0.8108 H         1 <0>         0.1301
     26 H5         -0.5205   -2.4039    0.0156 H         1 <0>         0.1018
     27 H6         -1.1911   -2.5305   -1.6283 H         1 <0>         0.0893
     28 H7          1.7550   -4.1191   -1.9876 H         1 <0>         0.1624
     29 H8          2.1548   -6.5421   -1.9661 H         1 <0>         0.1612
     30 H9          0.5428   -8.0662   -0.9528 H         1 <0>         0.1610
     31 H10        -4.5382   -7.2805    1.7299 H         1 <0>         0.4460
     32 H11        -3.5662   -8.5914    1.3307 H         1 <0>         0.4319
     33 H12        -2.3262   -2.7109   -0.5562 H         1 <0>         0.4279
     34 H13        -2.8731   -2.8418    1.0270 H         1 <0>         0.4311
     35 H14        -1.5896   -8.2512    0.2106 H         1 <0>         0.4426
@<TRIPOS>BOND
     1    1    6 ar
     2    1    2 ar
     3    1   22 1
     4    2    3 ar
     5    2   23 1
     6    3    4 ar
     7    3   24 1
     8    4    5 ar
     9    4   21 1
    10    5    6 ar
    11    5    7 1
    12    6   25 1
    13    7    8 1
    14    8    9 1
    15    8   26 1
    16    8   27 1
    17    9   14 ar
    18    9   10 ar
    19   10   11 ar
    20   10   28 1
    21   11   12 ar
    22   11   29 1
    23   12   13 ar
    24   12   30 1
    25   13   18 ar
    26   13   14 ar
    27   14   15 ar
    28   15   16 ar
    29   15   20 1
    30   16   17 ar
    31   17   18 ar
    32   17   19 1
    33   18   35 1
    34   19   31 1
    35   19   32 1
    36   20   33 1
    37   20   34 1
@<TRIPOS>MOLECULE
CHEMBL213969
   46    46     0     0     0
SMALL
USER_CHARGES

@<TRIPOS>ATOM
      1 C1          0.3568    1.4939    0.8490 C.3       1 <0>        -0.1207
      2 C2          0.5338    0.0007    0.7487 C.ar      1 <0>        -0.0713
      3 C3          0.5774   -0.6083   -0.4915 C.ar      1 <0>        -0.0968
      4 C4          0.7397   -1.9780   -0.5835 C.ar      1 <0>        -0.0696
      5 C5          0.8590   -2.7386    0.5646 C.ar      1 <0>        -0.0671
      6 C6          0.8164   -2.1294    1.8047 C.ar      1 <0>        -0.0950
      7 C7          0.6583   -0.7592    1.8967 C.ar      1 <0>        -0.0688
      8 C8          0.6171   -0.0945    3.2485 C.3       1 <0>        -0.0555
      9 S1         -1.0968   -0.0322    3.8397 S.3       1 <0>        -0.0467
     10 C9         -0.9781    0.7615    5.4083 C.2       1 <0>         0.3824
     11 N1          0.1906    1.1441    5.8625 N.2       1 <0>        -0.7599
     12 N2         -2.0897    0.9754    6.1417 N.2       1 <0>        -0.6643
     13 C10        -2.4650    2.2077    6.4266 C.2       1 <0>         0.6778
     14 N3         -1.8013    3.2687    5.8767 N.pl3     1 <0>        -0.8768
     15 N4         -3.5175    2.4235    7.2718 N.pl3     1 <0>        -0.8288
     16 C11         1.0351   -4.2319    0.4642 C.3       1 <0>        -0.1212
     17 C12         0.7862   -2.6421   -1.9355 C.3       1 <0>        -0.0562
     18 S2          2.5024   -2.7045   -2.5199 S.3       1 <0>        -0.0507
     19 C13         2.3897   -3.4974   -4.0893 C.2       1 <0>         0.3858
     20 N5          1.2228   -3.8795   -4.5484 N.2       1 <0>        -0.7605
     21 N6          3.5042   -3.7113   -4.8184 N.2       1 <0>        -0.6683
     22 C14         3.6383   -3.1417   -6.0009 C.2       1 <0>         0.6799
     23 N7          2.7071   -2.2397   -6.4346 N.pl3     1 <0>        -0.8762
     24 N8          4.7084   -3.4535   -6.7923 N.pl3     1 <0>        -0.8293
     25 H1          1.3340    1.9768    0.8440 H         1 <0>         0.0720
     26 H2         -0.2280    1.8484    0.0002 H         1 <0>         0.0688
     27 H3         -0.1636    1.7367    1.7755 H         1 <0>         0.0713
     28 H4          0.4842   -0.0141   -1.3885 H         1 <0>         0.1263
     29 H5          0.9092   -2.7237    2.7017 H         1 <0>         0.1285
     30 H6          1.2237   -0.6644    3.9523 H         1 <0>         0.1010
     31 H7          1.0104    0.9188    3.1673 H         1 <0>         0.1005
     32 H8          0.2487    1.6437    6.6919 H         1 <0>         0.3303
     33 H9         -1.0115    3.1183    5.3340 H         1 <0>         0.4164
     34 H10        -2.1201    4.1721    6.0292 H         1 <0>         0.4019
     35 H11        -3.9885    1.6706    7.6620 H         1 <0>         0.4251
     36 H12        -3.7934    3.3295    7.4813 H         1 <0>         0.4105
     37 H13         2.0976   -4.4700    0.4148 H         1 <0>         0.0779
     38 H14         0.5961   -4.7092    1.3404 H         1 <0>         0.0687
     39 H15         0.5388   -4.5966   -0.4351 H         1 <0>         0.0697
     40 H16         0.3923   -3.6553   -1.8564 H         1 <0>         0.1051
     41 H17         0.1825   -2.0717   -2.6415 H         1 <0>         0.0971
     42 H18         1.1681   -4.3813   -5.3767 H         1 <0>         0.3332
     43 H19         1.9910   -1.9596   -5.8433 H         1 <0>         0.4168
     44 H20         2.7625   -1.8798   -7.3336 H         1 <0>         0.4013
     45 H21         5.3691   -4.0935   -6.4846 H         1 <0>         0.4249
     46 H22         4.8070   -3.0347   -7.6617 H         1 <0>         0.4103
@<TRIPOS>BOND
     1    1    2 1
     2    1   25 1
     3    1   26 1
     4    1   27 1
     5    2    7 ar
     6    2    3 ar
     7    3    4 ar
     8    3   28 1
     9    4    5 ar
    10    4   17 1
    11    5    6 ar
    12    5   16 1
    13    6    7 ar
    14    6   29 1
    15    7    8 1
    16    8    9 1
    17    8   30 1
    18    8   31 1
    19    9   10 1
    20   10   11 2
    21   10   12 1
    22   11   32 1
    23   12   13 2
    24   13   14 1
    25   13   15 1
    26   14   33 1
    27   14   34 1
    28   15   35 1
    29   15   36 1
    30   16   37 1
    31   16   38 1
    32   16   39 1
    33   17   18 1
    34   17   40 1
    35   17   41 1
    36   18   19 1
    37   19   20 2
    38   19   21 1
    39   20   42 1
    40   21   22 2
    41   22   23 1
    42   22   24 1
    43   23   43 1
    44   23   44 1
    45   24   45 1
    46   24   46 1
@<TRIPOS>MOLECULE
CHEMBL443
   27    28     0     0     0
SMALL
USER_CHARGES

@<TRIPOS>ATOM
      1 C1         -0.0184    1.5028    0.0103 C.3       1 <0>        -0.0753
      2 C2          0.0021   -0.0041    0.0020 C.2       1 <0>         0.0345
      3 C3         -1.0761   -0.8071    0.0026 C.2       1 <0>        -0.2715
      4 C4         -0.6252   -2.1469   -0.0076 C.2       1 <0>         0.3859
      5 N1          0.6837   -2.1300   -0.0140 N.2       1 <0>        -0.4533
      6 O1          1.0999   -0.7764   -0.0131 O.3       1 <0>        -0.1203
      7 N2         -1.4296   -3.2817   -0.0100 N.2       1 <0>        -1.0529
      8 S1         -0.7384   -4.7865   -0.0224 S.o2      1 <0>         2.6208
      9 O2         -0.0749   -4.9184   -1.2721 O.2       1 <0>        -1.0265
     10 O3         -0.0617   -4.9329    1.2185 O.2       1 <0>        -1.0265
     11 C5         -2.0505   -5.9625   -0.0223 C.ar      1 <0>        -0.6699
     12 C6         -2.5617   -6.4257    1.1762 C.ar      1 <0>         0.0231
     13 C7         -3.5901   -7.3474    1.1799 C.ar      1 <0>        -0.2217
     14 C8         -4.1111   -7.8093   -0.0221 C.ar      1 <0>         0.2448
     15 C9         -3.5952   -7.3419   -1.2243 C.ar      1 <0>        -0.2217
     16 C10        -2.5706   -6.4160   -1.2207 C.ar      1 <0>         0.0230
     17 N3         -5.1509   -8.7418   -0.0221 N.pl3     1 <0>        -0.8771
     18 H1          1.0042    1.8801    0.0026 H         1 <0>         0.0724
     19 H2         -0.5455    1.8639   -0.8728 H         1 <0>         0.0813
     20 H3         -0.5286    1.8543    0.9071 H         1 <0>         0.0813
     21 H4         -2.1069   -0.4849    0.0099 H         1 <0>         0.1395
     22 H5         -2.1560   -6.0665    2.1104 H         1 <0>         0.1354
     23 H6         -3.9886   -7.7090    2.1163 H         1 <0>         0.1225
     24 H7         -3.9977   -7.6993   -2.1606 H         1 <0>         0.1225
     25 H8         -2.1721   -6.0489   -2.1550 H         1 <0>         0.1354
     26 H9         -5.5100   -9.0677    0.8180 H         1 <0>         0.3971
     27 H10        -5.5138   -9.0636   -0.8621 H         1 <0>         0.3971
@<TRIPOS>BOND
     1    1    2 1
     2    1   18 1
     3    1   19 1
     4    1   20 1
     5    2    6 1
     6    2    3 2
     7    3    4 1
     8    3   21 1
     9    4    5 2
    10    4    7 1
    11    5    6 1
    12    7    8 1
    13    8    9 2
    14    8   10 2
    15    8   11 1
    16   11   16 ar
    17   11   12 ar
    18   12   13 ar
    19   12   22 1
    20   13   14 ar
    21   13   23 1
    22   14   15 ar
    23   14   17 1
    24   15   16 ar
    25   15   24 1
    26   16   25 1
    27   17   26 1
    28   17   27 1
@<TRIPOS>MOLECULE
CHEMBL550842
   32    34     0     0     0
SMALL
USER_CHARGES

@<TRIPOS>ATOM
      1 C1         -0.0187    1.5258    0.0104 C.3       1 <0>        -0.1478
      2 C2          0.0021   -0.0041    0.0020 C.3       1 <0>        -0.0464
      3 C3          0.7074   -0.4901   -1.2379 C.2       1 <0>        -0.0991
      4 C4          2.0173   -0.7546   -1.4027 C.2       1 <0>        -0.1115
      5 C5          2.4865   -1.2194   -2.6998 C.2       1 <0>        -0.2780
      6 C6          3.8115   -1.5603   -3.1132 C.2       1 <0>         0.5691
      7 O1          4.7425   -1.4797   -2.3301 O.2       1 <0>        -0.4959
      8 N1          4.0183   -1.9717   -4.3775 N.am      1 <0>        -0.6536
      9 H1          4.9162   -2.2041   -4.6613 H         1 <0>         0.4177
     10 C7          2.9893   -2.0685   -5.2676 C.2       1 <0>         0.6575
     11 N2          1.7587   -1.7608   -4.9148 N.2       1 <0>        -0.5523
     12 C8          1.4860   -1.3484   -3.6819 C.2       1 <0>         0.1628
     13 S1          0.0058   -0.8595   -2.8344 S.3       1 <0>         0.1651
     14 N3          3.2403   -2.4922   -6.5490 N.pl3     1 <0>        -0.8104
     15 S2          3.1472   -0.5408   -0.0677 S.3       1 <0>         0.0602
     16 C9          3.1547   -2.1070    0.7395 C.ar      1 <0>        -0.0488
     17 C10         2.3716   -3.1607    0.2655 C.ar      1 <0>        -0.1814
     18 C11         2.4061   -4.3703    0.9260 C.ar      1 <0>         0.1168
     19 N4          3.1662   -4.5380    1.9923 N.ar      1 <0>        -0.4938
     20 C12         3.9209   -3.5665    2.4716 C.ar      1 <0>         0.1170
     21 C13         3.9482   -2.3283    1.8662 C.ar      1 <0>        -0.1579
     22 H2          1.0039    1.9031    0.0027 H         1 <0>         0.0633
     23 H3         -0.5459    1.8868   -0.8726 H         1 <0>         0.0593
     24 H4         -0.5289    1.8773    0.9072 H         1 <0>         0.0700
     25 H5          0.5293   -0.3651    0.8851 H         1 <0>         0.0961
     26 H6         -1.0205   -0.3814    0.0098 H         1 <0>         0.0869
     27 H7          4.1444   -2.7204   -6.8161 H         1 <0>         0.4197
     28 H8          2.5134   -2.5635   -7.1873 H         1 <0>         0.4330
     29 H9          1.7473   -3.0302   -0.6060 H         1 <0>         0.1274
     30 H10         1.8033   -5.1912    0.5666 H         1 <0>         0.1552
     31 H11         4.5279   -3.7454    3.3468 H         1 <0>         0.1606
     32 H12         4.5713   -1.5393    2.2607 H         1 <0>         0.1392
@<TRIPOS>BOND
     1    1    2 1
     2    1   22 1
     3    1   23 1
     4    1   24 1
     5    2    3 1
     6    2   25 1
     7    2   26 1
     8    3   13 1
     9    3    4 2
    10    4    5 1
    11    4   15 1
    12    5   12 2
    13    5    6 1
    14    6    7 2
    15    6    8 am
    16    8    9 1
    17    8   10 1
    18   10   11 2
    19   10   14 1
    20   11   12 1
    21   12   13 1
    22   14   27 1
    23   14   28 1
    24   15   16 1
    25   16   21 ar
    26   16   17 ar
    27   17   18 ar
    28   17   29 1
    29   18   19 ar
    30   18   30 1
    31   19   20 ar
    32   20   21 ar
    33   20   31 1
    34   21   32 1
@<TRIPOS>MOLECULE
CHEMBL425048
   57    60     0     0     0
SMALL
USER_CHARGES

@<TRIPOS>ATOM
      1 C1         -0.0167    1.3781    0.0096 C.ar      1 <0>        -0.1033
      2 C2          1.1709    2.0855    0.0021 C.ar      1 <0>        -0.1213
      3 C3          2.3773    1.4107   -0.0130 C.ar      1 <0>        -0.0970
      4 C4          2.3960    0.0285   -0.0201 C.ar      1 <0>        -0.1089
      5 C5          1.2084   -0.6789   -0.0117 C.ar      1 <0>        -0.0971
      6 C6          0.0021   -0.0041    0.0020 C.ar      1 <0>        -0.1213
      7 C7          3.7112   -0.7071   -0.0376 C.3       1 <0>         0.1138
      8 O1          4.1410   -0.9464    1.3041 O.3       1 <0>        -0.3988
      9 C8          5.3853   -1.6423    1.4004 C.3       1 <0>         0.0865
     10 C9          5.7397   -1.8393    2.8519 C.ar      1 <0>         0.2453
     11 C10         6.9180   -2.4914    3.2084 C.ar      1 <0>        -0.1667
     12 C11         7.2036   -2.6497    4.5771 C.ar      1 <0>         0.5371
     13 N1          6.3442   -2.1743    5.4709 N.ar      1 <0>        -0.5755
     14 C12         5.2355   -1.5607    5.0847 C.ar      1 <0>         0.6637
     15 N2          4.9383   -1.3902    3.8045 N.ar      1 <0>        -0.5577
     16 N3          4.3647   -1.0790    6.0462 N.pl3     1 <0>        -0.7926
     17 N4          8.3605   -3.2904    4.9849 N.pl3     1 <0>        -0.7736
     18 C13         7.8465   -3.0055    2.1728 C.ar      1 <0>        -0.1460
     19 C14         7.4403   -4.0282    1.3166 C.ar      1 <0>        -0.0430
     20 C15         8.3054   -4.5047    0.3545 C.ar      1 <0>        -0.1894
     21 C16         9.5816   -3.9666    0.2380 C.ar      1 <0>         0.2458
     22 C17         9.9888   -2.9471    1.0903 C.ar      1 <0>        -0.1941
     23 C18         9.1250   -2.4631    2.0500 C.ar      1 <0>        -0.0468
     24 N5         10.4566   -4.4516   -0.7369 N.pl3     1 <0>        -0.7324
     25 C19        11.8020   -3.8853   -0.8607 C.3       1 <0>         0.1632
     26 C20        12.5377   -4.5778   -1.9788 C.ar      1 <0>        -0.1155
     27 C21        13.2839   -5.7116   -1.7168 C.ar      1 <0>        -0.0859
     28 C22        13.9588   -6.3472   -2.7419 C.ar      1 <0>        -0.1114
     29 C23        13.8874   -5.8486   -4.0305 C.ar      1 <0>        -0.0231
     30 C24        13.1404   -4.7138   -4.2921 C.ar      1 <0>        -0.1114
     31 C25        12.4613   -4.0823   -3.2671 C.ar      1 <0>        -0.0860
     32 Cl1        14.7353   -6.6460   -5.3184 Cl        1 <0>        -0.0573
     33 H1         -0.9591    1.9053    0.0259 H         1 <0>         0.1279
     34 H2          1.1563    3.1654    0.0076 H         1 <0>         0.1279
     35 H3          3.3051    1.9634   -0.0196 H         1 <0>         0.1239
     36 H4          1.2231   -1.7588   -0.0176 H         1 <0>         0.1238
     37 H5         -0.9258   -0.5567    0.0082 H         1 <0>         0.1279
     38 H6          3.5884   -1.6586   -0.5549 H         1 <0>         0.0721
     39 H7          4.4573   -0.1052   -0.5563 H         1 <0>         0.0722
     40 H8          5.2973   -2.6133    0.9129 H         1 <0>         0.1106
     41 H9          6.1662   -1.0598    0.9116 H         1 <0>         0.1130
     42 H10         4.5702   -1.1929    6.9873 H         1 <0>         0.4443
     43 H11         3.5488   -0.6275    5.7791 H         1 <0>         0.4303
     44 H12         8.9825   -3.6349    4.3250 H         1 <0>         0.4325
     45 H13         8.5493   -3.3951    5.9305 H         1 <0>         0.4271
     46 H14         6.4490   -4.4471    1.4072 H         1 <0>         0.1254
     47 H15         7.9912   -5.2969   -0.3090 H         1 <0>         0.1309
     48 H16        10.9809   -2.5305    0.9980 H         1 <0>         0.1320
     49 H17         9.4402   -1.6677    2.7091 H         1 <0>         0.1259
     50 H18        10.1734   -5.1634   -1.3320 H         1 <0>         0.4071
     51 H19        11.7291   -2.8199   -1.0789 H         1 <0>         0.0763
     52 H20        12.3439   -4.0285    0.0742 H         1 <0>         0.0764
     53 H21        13.3399   -6.1006   -0.7109 H         1 <0>         0.1340
     54 H22        14.5421   -7.2328   -2.5371 H         1 <0>         0.1385
     55 H23        13.0845   -4.3239   -5.2977 H         1 <0>         0.1384
     56 H24        11.8743   -3.1993   -3.4721 H         1 <0>         0.1339
     57 H25         4.1186   -0.9319    3.5618 H         1 <0>         0.4482
@<TRIPOS>BOND
     1    1    6 ar
     2    1    2 ar
     3    1   33 1
     4    2    3 ar
     5    2   34 1
     6    3    4 ar
     7    3   35 1
     8    4    5 ar
     9    4    7 1
    10    5    6 ar
    11    5   36 1
    12    6   37 1
    13    7    8 1
    14    7   38 1
    15    7   39 1
    16    8    9 1
    17    9   10 1
    18    9   40 1
    19    9   41 1
    20   10   15 ar
    21   10   11 ar
    22   11   12 ar
    23   11   18 1
    24   12   13 ar
    25   12   17 1
    26   13   14 ar
    27   14   15 ar
    28   14   16 1
    29   15   57 1
    30   16   42 1
    31   16   43 1
    32   17   44 1
    33   17   45 1
    34   18   23 ar
    35   18   19 ar
    36   19   20 ar
    37   19   46 1
    38   20   21 ar
    39   20   47 1
    40   21   22 ar
    41   21   24 1
    42   22   23 ar
    43   22   48 1
    44   23   49 1
    45   24   25 1
    46   24   50 1
    47   25   26 1
    48   25   51 1
    49   25   52 1
    50   26   31 ar
    51   26   27 ar
    52   27   28 ar
    53   27   53 1
    54   28   29 ar
    55   28   54 1
    56   29   30 ar
    57   29   32 1
    58   30   31 ar
    59   30   55 1
    60   31   56 1
@<TRIPOS>MOLECULE
CHEMBL425048__1
   56    59     0     0     0
SMALL
USER_CHARGES

@<TRIPOS>ATOM
      1 C1         -0.0167    1.3781    0.0096 C.ar      1 <0>        -0.1138
      2 C2          1.1709    2.0855    0.0021 C.ar      1 <0>        -0.1244
      3 C3          2.3773    1.4107   -0.0130 C.ar      1 <0>        -0.0960
      4 C4          2.3960    0.0285   -0.0201 C.ar      1 <0>        -0.0899
      5 C5          1.2084   -0.6789   -0.0117 C.ar      1 <0>        -0.0973
      6 C6          0.0021   -0.0041    0.0020 C.ar      1 <0>        -0.1239
      7 C7          3.7112   -0.7071   -0.0376 C.3       1 <0>         0.1046
      8 O1          4.1410   -0.9464    1.3041 O.3       1 <0>        -0.3654
      9 C8          5.3853   -1.6423    1.4004 C.3       1 <0>         0.1120
     10 C9          5.7397   -1.8393    2.8519 C.ar      1 <0>         0.2539
     11 C10         6.4871   -0.8805    3.5322 C.ar      1 <0>        -0.2443
     12 C11         6.7913   -1.1110    4.8865 C.ar      1 <0>         0.4901
     13 N1          6.3569   -2.2269    5.4606 N.ar      1 <0>        -0.6246
     14 C12         5.6488   -3.1107    4.7734 C.ar      1 <0>         0.6053
     15 N2          5.3403   -2.9228    3.4984 N.ar      1 <0>        -0.5911
     16 N3          5.2140   -4.2616    5.4070 N.pl3     1 <0>        -0.8207
     17 N4          7.5311   -0.1905    5.6080 N.pl3     1 <0>        -0.8298
     18 C13         6.9502    0.3503    2.8469 C.ar      1 <0>        -0.0761
     19 C14         7.8622    0.2632    1.7959 C.ar      1 <0>        -0.0621
     20 C15         8.2914    1.4091    1.1603 C.ar      1 <0>        -0.1896
     21 C16         7.8161    2.6503    1.5669 C.ar      1 <0>         0.2173
     22 C17         6.9069    2.7396    2.6144 C.ar      1 <0>        -0.1922
     23 C18         6.4700    1.5960    3.2490 C.ar      1 <0>        -0.0583
     24 N5          8.2531    3.8098    0.9221 N.pl3     1 <0>        -0.7443
     25 C19         7.7528    5.1186    1.3497 C.3       1 <0>         0.1672
     26 C20         8.3746    6.1963    0.4996 C.ar      1 <0>        -0.1053
     27 C21         9.5678    6.7782    0.8852 C.ar      1 <0>        -0.0871
     28 C22        10.1387    7.7667    0.1059 C.ar      1 <0>        -0.1123
     29 C23         9.5157    8.1738   -1.0604 C.ar      1 <0>        -0.0271
     30 C24         8.3215    7.5911   -1.4458 C.ar      1 <0>        -0.1121
     31 C25         7.7545    6.5988   -0.6686 C.ar      1 <0>        -0.0869
     32 Cl1        10.2318    9.4158   -2.0394 Cl        1 <0>        -0.0649
     33 H1         -0.9591    1.9053    0.0259 H         1 <0>         0.1223
     34 H2          1.1563    3.1654    0.0076 H         1 <0>         0.1226
     35 H3          3.3051    1.9634   -0.0196 H         1 <0>         0.1218
     36 H4          1.2231   -1.7588   -0.0176 H         1 <0>         0.1231
     37 H5         -0.9258   -0.5567    0.0082 H         1 <0>         0.1235
     38 H6          3.5884   -1.6586   -0.5549 H         1 <0>         0.0598
     39 H7          4.4573   -0.1052   -0.5563 H         1 <0>         0.0594
     40 H8          5.2973   -2.6133    0.9129 H         1 <0>         0.0694
     41 H9          6.1662   -1.0598    0.9116 H         1 <0>         0.0752
     42 H10         5.4287   -4.4117    6.3410 H         1 <0>         0.4134
     43 H11         4.6946   -4.9182    4.9172 H         1 <0>         0.4152
     44 H12         7.8447    0.6218    5.1804 H         1 <0>         0.4136
     45 H13         7.7362   -0.3576    6.5412 H         1 <0>         0.4064
     46 H14         8.2324   -0.7009    1.4801 H         1 <0>         0.1199
     47 H15         8.9978    1.3421    0.3462 H         1 <0>         0.1204
     48 H16         6.5389    3.7051    2.9286 H         1 <0>         0.1209
     49 H17         5.7601    1.6655    4.0599 H         1 <0>         0.1187
     50 H18         8.8878    3.7483    0.1912 H         1 <0>         0.4008
     51 H19         6.6689    5.1476    1.2377 H         1 <0>         0.0709
     52 H20         8.0146    5.2839    2.3948 H         1 <0>         0.0707
     53 H21        10.0539    6.4606    1.7959 H         1 <0>         0.1342
     54 H22        11.0707    8.2215    0.4075 H         1 <0>         0.1362
     55 H23         7.8346    7.9088   -2.3560 H         1 <0>         0.1363
     56 H24         6.8248    6.1405   -0.9719 H         1 <0>         0.1343
@<TRIPOS>BOND
     1    1    6 ar
     2    1    2 ar
     3    1   33 1
     4    2    3 ar
     5    2   34 1
     6    3    4 ar
     7    3   35 1
     8    4    5 ar
     9    4    7 1
    10    5    6 ar
    11    5   36 1
    12    6   37 1
    13    7    8 1
    14    7   38 1
    15    7   39 1
    16    8    9 1
    17    9   10 1
    18    9   40 1
    19    9   41 1
    20   10   15 ar
    21   10   11 ar
    22   11   12 ar
    23   11   18 1
    24   12   13 ar
    25   12   17 1
    26   13   14 ar
    27   14   15 ar
    28   14   16 1
    29   16   42 1
    30   16   43 1
    31   17   44 1
    32   17   45 1
    33   18   23 ar
    34   18   19 ar
    35   19   20 ar
    36   19   46 1
    37   20   21 ar
    38   20   47 1
    39   21   22 ar
    40   21   24 1
    41   22   23 ar
    42   22   48 1
    43   23   49 1
    44   24   25 1
    45   24   50 1
    46   25   26 1
    47   25   51 1
    48   25   52 1
    49   26   31 ar
    50   26   27 ar
    51   27   28 ar
    52   27   53 1
    53   28   29 ar
    54   28   54 1
    55   29   30 ar
    56   29   32 1
    57   30   31 ar
    58   30   55 1
    59   31   56 1
@<TRIPOS>MOLECULE
CHEMBL293512
   50    53     0     0     0
SMALL
USER_CHARGES

@<TRIPOS>ATOM
      1 C1          2.0203   -4.4512   -3.1562 C.3       1 <0>         0.0189
      2 O1          1.1018   -3.8945   -2.2137 O.3       1 <0>        -0.2873
      3 C2          0.8847   -2.5537   -2.2811 C.ar      1 <0>         0.1823
      4 C3          1.5377   -1.7933   -3.2378 C.ar      1 <0>        -0.2433
      5 C4          1.3157   -0.4239   -3.3072 C.ar      1 <0>         0.1611
      6 C5          0.4394    0.1842   -2.4174 C.ar      1 <0>        -0.2528
      7 C6         -0.2138   -0.5751   -1.4599 C.ar      1 <0>         0.1861
      8 C7          0.0032   -1.9466   -1.3940 C.ar      1 <0>         0.0462
      9 O2         -0.6425   -2.6940   -0.4571 O.3       1 <0>        -0.3078
     10 C8          0.0069   -2.8536    0.8058 C.3       1 <0>         0.0333
     11 O3         -1.0713    0.0205   -0.5885 O.3       1 <0>        -0.2870
     12 C9         -1.2509    1.4322   -0.7176 C.3       1 <0>         0.0170
     13 N1          1.9748    0.3428   -4.2727 N.pl3     1 <0>        -0.4461
     14 C10         2.7859   -0.3283   -5.2860 C.3       1 <0>         0.0743
     15 C11         2.5908    0.3261   -6.6525 C.3       1 <0>        -0.1685
     16 C12         2.6767    1.8226   -6.5212 C.2       1 <0>         0.1908
     17 C13         3.1670    2.6068   -7.5493 C.2       1 <0>        -0.3261
     18 C14         3.6606    2.0115   -8.8073 C.cat     1 <0>         0.5652
     19 N2          4.1332    2.8538   -9.7487 N.2       1 <0>        -0.6278
     20 C15         4.1450    4.1571   -9.5409 C.2       1 <0>         0.6871
     21 N3          3.7035    4.7290   -8.4265 N.2       1 <0>        -0.6311
     22 C16         3.2110    4.0170   -7.4214 C.2       1 <0>         0.5531
     23 N4          2.7479    4.6329   -6.2870 N.am      1 <0>        -0.6045
     24 C17         2.2657    3.9137   -5.2535 C.2       1 <0>         0.5872
     25 O4          1.8461    4.4771   -4.2596 O.2       1 <0>        -0.4828
     26 C18         2.2482    2.4473   -5.3332 C.2       1 <0>        -0.3269
     27 C19         1.8444    1.6756   -4.2514 C.2       1 <0>         0.3534
     28 N5          4.6440    4.9704  -10.5362 N.pl3     1 <0>        -0.7696
     29 N6          3.6404    0.7066   -9.0026 N.pl3     1 <0>        -0.7797
     30 H1          1.6612   -4.2632   -4.1681 H         1 <0>         0.0608
     31 H2          2.9990   -3.9891   -3.0264 H         1 <0>         0.0610
     32 H3          2.1014   -5.5259   -2.9933 H         1 <0>         0.1143
     33 H4          2.2197   -2.2654   -3.9295 H         1 <0>         0.1507
     34 H5          0.2675    1.2490   -2.4716 H         1 <0>         0.1487
     35 H6          0.1566   -1.8757    1.2635 H         1 <0>         0.0497
     36 H7         -0.6131   -3.4689    1.4579 H         1 <0>         0.1024
     37 H8          0.9723   -3.3379    0.6593 H         1 <0>         0.0491
     38 H9         -1.9581    1.7790    0.0359 H         1 <0>         0.1156
     39 H10        -0.2940    1.9346   -0.5763 H         1 <0>         0.0626
     40 H11        -1.6377    1.6600   -1.7109 H         1 <0>         0.0628
     41 H12         3.8370   -0.2652   -5.0044 H         1 <0>         0.1198
     42 H13         2.4927   -1.3764   -5.3445 H         1 <0>         0.1346
     43 H14         3.3660   -0.0226   -7.3348 H         1 <0>         0.1490
     44 H15         1.6125    0.0530   -7.0482 H         1 <0>         0.1399
     45 H16         1.4235    2.1572   -3.3811 H         1 <0>         0.2005
     46 H17         4.9738    4.5808  -11.3610 H         1 <0>         0.4309
     47 H18         4.6653    5.9321  -10.4115 H         1 <0>         0.4307
     48 H19         2.9535    0.1642   -8.5845 H         1 <0>         0.4298
     49 H20         4.3124    0.2899   -9.5643 H         1 <0>         0.4318
     50 H21         2.7678    5.6008   -6.2271 H         1 <0>         0.4403
@<TRIPOS>BOND
     1    1    2 1
     2    1   30 1
     3    1   31 1
     4    1   32 1
     5    2    3 1
     6    3    8 ar
     7    3    4 ar
     8    4    5 ar
     9    4   33 1
    10    5    6 ar
    11    5   13 1
    12    6    7 ar
    13    6   34 1
    14    7    8 ar
    15    7   11 1
    16    8    9 1
    17    9   10 1
    18   10   35 1
    19   10   36 1
    20   10   37 1
    21   11   12 1
    22   12   38 1
    23   12   39 1
    24   12   40 1
    25   13   27 1
    26   13   14 1
    27   14   15 1
    28   14   41 1
    29   14   42 1
    30   15   16 1
    31   15   43 1
    32   15   44 1
    33   16   26 1
    34   16   17 2
    35   17   22 1
    36   17   18 1
    37   18   19 1
    38   18   29 2
    39   19   20 2
    40   20   21 1
    41   20   28 1
    42   21   22 2
    43   22   23 1
    44   23   24 am
    45   23   50 1
    46   24   25 2
    47   24   26 1
    48   26   27 2
    49   27   45 1
    50   28   46 1
    51   28   47 1
    52   29   48 1
    53   29   49 1
@<TRIPOS>MOLECULE
CHEMBL149101
   43    46     0     0     0
SMALL
USER_CHARGES

@<TRIPOS>ATOM
      1 C1          0.6027    1.5059    0.0256 C.3       1 <0>        -0.1682
      2 C2          0.5978   -0.0011    0.0167 C.ar      1 <0>         0.0781
      3 C3          0.7711   -0.7002   -1.1492 C.ar      1 <0>        -0.1744
      4 C4          0.7631   -2.0894   -1.1308 C.ar      1 <0>         0.2406
      5 N1          0.5923   -2.7658   -0.0167 N.ar      1 <0>        -0.4986
      6 C5          0.4186   -2.1439    1.1496 C.ar      1 <0>         0.4086
      7 C6          0.4219   -0.7279    1.1996 C.ar      1 <0>        -0.2410
      8 C7          0.2403   -0.0941    2.4537 C.ar      1 <0>         0.5787
      9 N2          0.0801   -0.8575    3.5253 N.ar      1 <0>        -0.5780
     10 C8          0.0882   -2.1844    3.4357 C.ar      1 <0>         0.6998
     11 N3          0.2432   -2.8239    2.2916 N.ar      1 <0>        -0.5725
     12 N4         -0.0838   -2.9256    4.5891 N.pl3     1 <0>        -0.7766
     13 N5          0.2308    1.2796    2.5567 N.pl3     1 <0>        -0.8021
     14 C9          0.9696    0.0364   -2.4489 C.3       1 <0>         0.1642
     15 N6          2.3622    0.4797   -2.5512 N.pl3     1 <0>        -0.7434
     16 C10         2.7885    1.1887   -3.6767 C.ar      1 <0>         0.1535
     17 C11         4.1027    1.6039   -3.7798 C.ar      1 <0>        -0.1484
     18 C12         4.4825    2.3145   -4.9324 C.ar      1 <0>        -0.0509
     19 C13         5.8003    2.7683   -5.1085 C.ar      1 <0>        -0.1177
     20 C14         6.1310    3.4527   -6.2378 C.ar      1 <0>        -0.0957
     21 C15         5.1787    3.7099   -7.2223 C.ar      1 <0>        -0.1162
     22 C16         3.8934    3.2851   -7.0846 C.ar      1 <0>        -0.0766
     23 C17         3.5123    2.5743   -5.9326 C.ar      1 <0>         0.0853
     24 N7          2.2564    2.1456   -5.7744 N.ar      1 <0>        -0.4335
     25 C18         1.8883    1.4780   -4.7092 C.ar      1 <0>         0.0815
     26 H1          1.5940    1.8644    0.3030 H         1 <0>         0.1067
     27 H2          0.3472    1.8760   -0.9673 H         1 <0>         0.1067
     28 H3         -0.1295    1.8674    0.7476 H         1 <0>         0.1063
     29 H4          0.9004   -2.6280   -2.0567 H         1 <0>         0.1951
     30 H5         -0.2071   -2.4769    5.4402 H         1 <0>         0.4485
     31 H6         -0.0814   -3.8947    4.5477 H         1 <0>         0.4341
     32 H7         -0.4109    1.7180    3.1371 H         1 <0>         0.4312
     33 H8          0.8658    1.8084    2.0488 H         1 <0>         0.4361
     34 H9          0.7374   -0.6273   -3.2818 H         1 <0>         0.0876
     35 H10         0.3092    0.9030   -2.4798 H         1 <0>         0.0872
     36 H11         2.9882    0.2808   -1.8374 H         1 <0>         0.4012
     37 H12         4.8166    1.3892   -2.9984 H         1 <0>         0.1349
     38 H13         6.5467    2.5756   -4.3521 H         1 <0>         0.1288
     39 H14         7.1443    3.8013   -6.3724 H         1 <0>         0.1294
     40 H15         5.4656    4.2556   -8.1091 H         1 <0>         0.1319
     41 H16         3.1682    3.4934   -7.8573 H         1 <0>         0.1360
     42 H17         0.8641    1.1463   -4.6233 H         1 <0>         0.1554
     43 H18         0.2412   -3.7938    2.2786 H         1 <0>         0.4464
@<TRIPOS>BOND
     1    1    2 1
     2    1   26 1
     3    1   27 1
     4    1   28 1
     5    2    7 ar
     6    2    3 ar
     7    3    4 ar
     8    3   14 1
     9    4    5 ar
    10    4   29 1
    11    5    6 ar
    12    6   11 ar
    13    6    7 ar
    14    7    8 ar
    15    8    9 ar
    16    8   13 1
    17    9   10 ar
    18   10   11 ar
    19   10   12 1
    20   11   43 1
    21   12   30 1
    22   12   31 1
    23   13   32 1
    24   13   33 1
    25   14   15 1
    26   14   34 1
    27   14   35 1
    28   15   16 1
    29   15   36 1
    30   16   25 ar
    31   16   17 ar
    32   17   18 ar
    33   17   37 1
    34   18   23 ar
    35   18   19 ar
    36   19   20 ar
    37   19   38 1
    38   20   21 ar
    39   20   39 1
    40   21   22 ar
    41   21   40 1
    42   22   23 ar
    43   22   41 1
    44   23   24 ar
    45   24   25 ar
    46   25   42 1
@<TRIPOS>MOLECULE
CHEMBL149101__1
   42    45     0     0     0
SMALL
USER_CHARGES

@<TRIPOS>ATOM
      1 C1          0.6027    1.5059    0.0256 C.3       1 <0>        -0.1547
      2 C2          0.5978   -0.0011    0.0167 C.ar      1 <0>         0.0613
      3 C3          0.7711   -0.7002   -1.1492 C.ar      1 <0>        -0.2186
      4 C4          0.7631   -2.0894   -1.1308 C.ar      1 <0>         0.2107
      5 N1          0.5923   -2.7658   -0.0167 N.ar      1 <0>        -0.4891
      6 C5          0.4186   -2.1439    1.1496 C.ar      1 <0>         0.4173
      7 C6          0.4219   -0.7279    1.1996 C.ar      1 <0>        -0.2828
      8 C7          0.2403   -0.0941    2.4537 C.ar      1 <0>         0.5249
      9 N2          0.0801   -0.8575    3.5253 N.ar      1 <0>        -0.6168
     10 C8          0.0882   -2.1844    3.4357 C.ar      1 <0>         0.6259
     11 N3          0.2432   -2.8239    2.2916 N.ar      1 <0>        -0.5914
     12 N4         -0.0838   -2.9256    4.5891 N.pl3     1 <0>        -0.8097
     13 N5          0.2308    1.2796    2.5567 N.pl3     1 <0>        -0.8449
     14 C9          0.9696    0.0364   -2.4489 C.3       1 <0>         0.1734
     15 N6          2.3622    0.4797   -2.5512 N.pl3     1 <0>        -0.7355
     16 C10         2.7885    1.1887   -3.6767 C.ar      1 <0>         0.1666
     17 C11         4.1027    1.6039   -3.7798 C.ar      1 <0>        -0.1625
     18 C12         4.4825    2.3145   -4.9324 C.ar      1 <0>        -0.0469
     19 C13         5.8003    2.7683   -5.1085 C.ar      1 <0>        -0.1170
     20 C14         6.1310    3.4527   -6.2378 C.ar      1 <0>        -0.1010
     21 C15         5.1787    3.7099   -7.2223 C.ar      1 <0>        -0.1243
     22 C16         3.8934    3.2851   -7.0846 C.ar      1 <0>        -0.0744
     23 C17         3.5123    2.5743   -5.9326 C.ar      1 <0>         0.0776
     24 N7          2.2564    2.1456   -5.7744 N.ar      1 <0>        -0.4371
     25 C18         1.8883    1.4780   -4.7092 C.ar      1 <0>         0.0830
     26 H1          1.5940    1.8644    0.3030 H         1 <0>         0.0869
     27 H2          0.3472    1.8760   -0.9673 H         1 <0>         0.0858
     28 H3         -0.1295    1.8674    0.7476 H         1 <0>         0.1000
     29 H4          0.9004   -2.6280   -2.0567 H         1 <0>         0.1681
     30 H5         -0.2071   -2.4769    5.4402 H         1 <0>         0.4166
     31 H6         -0.0814   -3.8947    4.5477 H         1 <0>         0.4193
     32 H7         -0.4109    1.7180    3.1371 H         1 <0>         0.4112
     33 H8          0.8658    1.8084    2.0488 H         1 <0>         0.4184
     34 H9          0.7374   -0.6273   -3.2818 H         1 <0>         0.0766
     35 H10         0.3092    0.9030   -2.4798 H         1 <0>         0.0759
     36 H11         2.9882    0.2808   -1.8374 H         1 <0>         0.4024
     37 H12         4.8166    1.3892   -2.9984 H         1 <0>         0.1342
     38 H13         6.5467    2.5756   -4.3521 H         1 <0>         0.1269
     39 H14         7.1443    3.8013   -6.3724 H         1 <0>         0.1257
     40 H15         5.4656    4.2556   -8.1091 H         1 <0>         0.1278
     41 H16         3.1682    3.4934   -7.8573 H         1 <0>         0.1328
     42 H17         0.8641    1.1463   -4.6233 H         1 <0>         0.1572
@<TRIPOS>BOND
     1    1    2 1
     2    1   26 1
     3    1   27 1
     4    1   28 1
     5    2    7 ar
     6    2    3 ar
     7    3    4 ar
     8    3   14 1
     9    4    5 ar
    10    4   29 1
    11    5    6 ar
    12    6   11 ar
    13    6    7 ar
    14    7    8 ar
    15    8    9 ar
    16    8   13 1
    17    9   10 ar
    18   10   11 ar
    19   10   12 1
    20   12   30 1
    21   12   31 1
    22   13   32 1
    23   13   33 1
    24   14   15 1
    25   14   34 1
    26   14   35 1
    27   15   16 1
    28   15   36 1
    29   16   25 ar
    30   16   17 ar
    31   17   18 ar
    32   17   37 1
    33   18   23 ar
    34   18   19 ar
    35   19   20 ar
    36   19   38 1
    37   20   21 ar
    38   20   39 1
    39   21   22 ar
    40   21   40 1
    41   22   23 ar
    42   22   41 1
    43   23   24 ar
    44   24   25 ar
    45   25   42 1
@<TRIPOS>MOLECULE
CHEMBL54659
   50    52     0     0     0
SMALL
USER_CHARGES

@<TRIPOS>ATOM
      1 C1          2.3058   -0.6576    4.7695 C.3       1 <0>        -0.1592
      2 C2          1.6992   -2.0600    4.6911 C.3       1 <0>        -0.1061
      3 C3          1.3072   -2.5158    6.0730 C.ar      1 <0>         0.2538
      4 C4          0.0062   -2.3294    6.5350 C.ar      1 <0>        -0.1908
      5 C5         -0.3098   -2.7729    7.8325 C.ar      1 <0>         0.5409
      6 N1          0.6387   -3.3486    8.5623 N.ar      1 <0>        -0.5736
      7 C6          1.8627   -3.5047    8.0806 C.ar      1 <0>         0.6671
      8 N2          2.1928   -3.1032    6.8614 N.ar      1 <0>        -0.5693
      9 N3          2.8234   -4.1092    8.8715 N.pl3     1 <0>        -0.7897
     10 N4         -1.5868   -2.6114    8.3395 N.pl3     1 <0>        -0.7706
     11 C7         -1.0185   -1.6801    5.6820 C.ar      1 <0>        -0.0494
     12 C8         -0.9332   -0.3159    5.4036 C.ar      1 <0>        -0.0930
     13 C9         -1.8856    0.2912    4.6093 C.ar      1 <0>        -0.0858
     14 C10        -2.9291   -0.4478    4.0851 C.ar      1 <0>        -0.0226
     15 C11        -3.0252   -1.8147    4.3569 C.ar      1 <0>         0.0906
     16 C12        -2.0632   -2.4321    5.1537 C.ar      1 <0>        -0.1146
     17 N5         -4.0616   -2.5483    3.8368 N.2       1 <0>        -0.2916
     18 N6         -3.8320   -3.6987    3.3001 N.2       1 <0>         0.1448
     19 N7         -2.6098   -3.9414    2.6596 N.pl3     1 <0>        -0.5091
     20 C13        -1.6621   -2.8441    2.4500 C.3       1 <0>         0.0494
     21 C14        -2.2796   -5.2925    2.1995 C.3       1 <0>         0.1245
     22 C15        -2.6637   -5.4374    0.7256 C.3       1 <0>         0.2146
     23 O1         -1.9501   -4.4656   -0.0572 O.3       1 <0>        -0.3800
     24 C16        -2.8810   -4.0686   -1.0927 C.3       1 <0>         0.0186
     25 C17        -4.2299   -4.0984   -0.3315 C.3       1 <0>         0.0268
     26 O2         -4.0711   -5.2123    0.5702 O.3       1 <0>        -0.3681
     27 Cl1        -4.1225    0.3236    3.0879 Cl        1 <0>        -0.0262
     28 H1          3.1327   -0.6586    5.4796 H         1 <0>         0.0636
     29 H2          2.6722   -0.3647    3.7856 H         1 <0>         0.0911
     30 H3          1.5447    0.0496    5.0991 H         1 <0>         0.0740
     31 H4          0.8168   -2.0390    4.0515 H         1 <0>         0.1189
     32 H5          2.4329   -2.7506    4.2752 H         1 <0>         0.1081
     33 H6          2.5962   -4.4117    9.7647 H         1 <0>         0.4460
     34 H7          3.7243   -4.2305    8.5329 H         1 <0>         0.4308
     35 H8         -2.2526   -2.1229    7.8305 H         1 <0>         0.4333
     36 H9         -1.8165   -2.9868    9.2039 H         1 <0>         0.4297
     37 H10        -0.1202    0.2671    5.8106 H         1 <0>         0.1419
     38 H11        -1.8150    1.3478    4.3972 H         1 <0>         0.1512
     39 H12        -2.1304   -3.4893    5.3636 H         1 <0>         0.1338
     40 H13        -0.9594   -2.8070    3.2824 H         1 <0>         0.0559
     41 H14        -1.1163   -3.0080    1.5208 H         1 <0>         0.0985
     42 H15        -2.2054   -1.9011    2.3908 H         1 <0>         0.0755
     43 H16        -1.2094   -5.4641    2.3146 H         1 <0>         0.0979
     44 H17        -2.8305   -6.0229    2.7920 H         1 <0>         0.1102
     45 H18        -2.4127   -6.4398    0.3786 H         1 <0>         0.0993
     46 H19        -2.6585   -3.0643   -1.4532 H         1 <0>         0.1095
     47 H20        -2.8803   -4.7854   -1.9138 H         1 <0>         0.0818
     48 H21        -4.3798   -3.1721    0.2231 H         1 <0>         0.0718
     49 H22        -5.0566   -4.2747   -1.0196 H         1 <0>         0.1037
     50 H23         3.0990   -3.2391    6.5432 H         1 <0>         0.4421
@<TRIPOS>BOND
     1    1    2 1
     2    1   28 1
     3    1   29 1
     4    1   30 1
     5    2    3 1
     6    2   31 1
     7    2   32 1
     8    3    8 ar
     9    3    4 ar
    10    4    5 ar
    11    4   11 1
    12    5    6 ar
    13    5   10 1
    14    6    7 ar
    15    7    8 ar
    16    7    9 1
    17    8   50 1
    18    9   33 1
    19    9   34 1
    20   10   35 1
    21   10   36 1
    22   11   16 ar
    23   11   12 ar
    24   12   13 ar
    25   12   37 1
    26   13   14 ar
    27   13   38 1
    28   14   15 ar
    29   14   27 1
    30   15   16 ar
    31   15   17 1
    32   16   39 1
    33   17   18 2
    34   18   19 1
    35   19   20 1
    36   19   21 1
    37   20   40 1
    38   20   41 1
    39   20   42 1
    40   21   22 1
    41   21   43 1
    42   21   44 1
    43   22   26 1
    44   22   23 1
    45   22   45 1
    46   23   24 1
    47   24   25 1
    48   24   46 1
    49   24   47 1
    50   25   26 1
    51   25   48 1
    52   25   49 1
@<TRIPOS>MOLECULE
CHEMBL54659__1
   49    51     0     0     0
SMALL
USER_CHARGES

@<TRIPOS>ATOM
      1 C1          1.3334    0.0822   -5.0579 C.3       1 <0>        -0.1438
      2 C2          0.7988   -1.3286   -5.3122 C.3       1 <0>        -0.0809
      3 C3          0.1779   -1.3909   -6.6839 C.ar      1 <0>         0.2695
      4 C4         -1.1881   -1.1737   -6.8507 C.ar      1 <0>        -0.2888
      5 C5         -1.7194   -1.2423   -8.1519 C.ar      1 <0>         0.4995
      6 N1         -0.9031   -1.5098   -9.1648 N.ar      1 <0>        -0.6298
      7 C6          0.3900   -1.7093   -8.9579 C.ar      1 <0>         0.6117
      8 N2          0.9239   -1.6470   -7.7463 N.ar      1 <0>        -0.6020
      9 N3          1.2081   -1.9855  -10.0387 N.pl3     1 <0>        -0.8183
     10 N4         -3.0694   -1.0350   -8.3723 N.pl3     1 <0>        -0.8294
     11 C7         -2.0593   -0.8786   -5.6876 C.ar      1 <0>         0.0105
     12 C8         -2.3259   -1.8716   -4.7448 C.ar      1 <0>        -0.1065
     13 C9         -3.1364   -1.5995   -3.6605 C.ar      1 <0>        -0.0895
     14 C10        -3.6887   -0.3427   -3.5018 C.ar      1 <0>        -0.0395
     15 C11        -3.4289    0.6598   -4.4393 C.ar      1 <0>         0.0838
     16 C12        -2.6074    0.3908   -5.5320 C.ar      1 <0>        -0.1214
     17 N5         -3.9777    1.9077   -4.2819 N.2       1 <0>        -0.2916
     18 N6         -3.2551    2.9589   -4.4737 N.2       1 <0>         0.1316
     19 N7         -1.8894    2.9366   -4.1620 N.pl3     1 <0>        -0.5095
     20 C13        -1.3176    1.7864   -3.4576 C.3       1 <0>         0.0470
     21 C14        -1.0332    4.0634   -4.5405 C.3       1 <0>         0.1249
     22 C15        -0.9131    5.0312   -3.3616 C.3       1 <0>         0.2167
     23 O1         -0.3494    4.3466   -2.2302 O.3       1 <0>        -0.3764
     24 C16        -1.0204    4.9165   -1.0807 C.3       1 <0>         0.0183
     25 C17        -2.4495    5.1468   -1.6326 C.3       1 <0>         0.0274
     26 O2         -2.2129    5.5198   -3.0052 O.3       1 <0>        -0.3687
     27 Cl1        -4.7070   -0.0095   -2.1359 Cl        1 <0>        -0.0504
     28 H1          2.1713    0.2792   -5.7267 H         1 <0>         0.0621
     29 H2          0.5425    0.8092   -5.2424 H         1 <0>         0.0541
     30 H3          1.6674    0.1632   -4.0235 H         1 <0>         0.0665
     31 H4          1.6187   -2.0443   -5.2517 H         1 <0>         0.0892
     32 H5          0.0471   -1.5730   -4.5617 H         1 <0>         0.0863
     33 H6          0.8327   -2.0307  -10.9320 H         1 <0>         0.4143
     34 H7          2.1570   -2.1339   -9.9033 H         1 <0>         0.4161
     35 H8         -3.6712   -0.9184   -7.6206 H         1 <0>         0.4133
     36 H9         -3.4141   -1.0063   -9.2785 H         1 <0>         0.4085
     37 H10        -1.8976   -2.8559   -4.8635 H         1 <0>         0.1355
     38 H11        -3.3398   -2.3721   -2.9338 H         1 <0>         0.1409
     39 H12        -2.4000    1.1634   -6.2576 H         1 <0>         0.1268
     40 H13        -0.9179    1.0779   -4.1832 H         1 <0>         0.0676
     41 H14        -0.5163    2.1244   -2.8004 H         1 <0>         0.0925
     42 H15        -2.0930    1.3010   -2.8650 H         1 <0>         0.0730
     43 H16        -0.0437    3.6936   -4.8093 H         1 <0>         0.0970
     44 H17        -1.4712    4.5821   -5.3933 H         1 <0>         0.1071
     45 H18        -0.2707    5.8673   -3.6382 H         1 <0>         0.0963
     46 H19        -1.0323    4.2137   -0.2477 H         1 <0>         0.1075
     47 H20        -0.5588    5.8594   -0.7873 H         1 <0>         0.0782
     48 H21        -3.0358    4.2295   -1.5783 H         1 <0>         0.0727
     49 H22        -2.9450    5.9544   -1.0938 H         1 <0>         0.0999
@<TRIPOS>BOND
     1    1    2 1
     2    1   28 1
     3    1   29 1
     4    1   30 1
     5    2    3 1
     6    2   31 1
     7    2   32 1
     8    3    8 ar
     9    3    4 ar
    10    4    5 ar
    11    4   11 1
    12    5    6 ar
    13    5   10 1
    14    6    7 ar
    15    7    8 ar
    16    7    9 1
    17    9   33 1
    18    9   34 1
    19   10   35 1
    20   10   36 1
    21   11   16 ar
    22   11   12 ar
    23   12   13 ar
    24   12   37 1
    25   13   14 ar
    26   13   38 1
    27   14   15 ar
    28   14   27 1
    29   15   16 ar
    30   15   17 1
    31   16   39 1
    32   17   18 2
    33   18   19 1
    34   19   20 1
    35   19   21 1
    36   20   40 1
    37   20   41 1
    38   20   42 1
    39   21   22 1
    40   21   43 1
    41   21   44 1
    42   22   26 1
    43   22   23 1
    44   22   45 1
    45   23   24 1
    46   24   25 1
    47   24   46 1
    48   24   47 1
    49   25   26 1
    50   25   48 1
    51   25   49 1
@<TRIPOS>MOLECULE
CHEMBL54659__2
   50    52     0     0     0
SMALL
USER_CHARGES

@<TRIPOS>ATOM
      1 C1         -0.6485   -1.6887   -0.6219 C.3       1 <0>        -0.1539
      2 C2         -0.0662   -0.3852   -0.0715 C.3       1 <0>        -0.1055
      3 C3          0.5987   -0.6525    1.2542 C.ar      1 <0>         0.2531
      4 C4         -0.1469   -0.6495    2.4310 C.ar      1 <0>        -0.1877
      5 C5          0.5206   -0.9050    3.6431 C.ar      1 <0>         0.5409
      6 N1          1.8279   -1.1378    3.6187 N.ar      1 <0>        -0.5745
      7 C6          2.4958   -1.1304    2.4749 C.ar      1 <0>         0.6661
      8 N2          1.8975   -0.8984    1.3152 N.ar      1 <0>        -0.5690
      9 N3          3.8569   -1.3773    2.4905 N.pl3     1 <0>        -0.7912
     10 N4         -0.1732   -0.9132    4.8400 N.pl3     1 <0>        -0.7709
     11 C7         -1.6056   -0.3836    2.4069 C.ar      1 <0>        -0.0551
     12 C8         -2.0785    0.8882    2.0828 C.ar      1 <0>        -0.0902
     13 C9         -3.4361    1.1386    2.0591 C.ar      1 <0>        -0.0920
     14 C10        -4.3353    0.1320    2.3561 C.ar      1 <0>         0.0062
     15 C11        -3.8737   -1.1455    2.6822 C.ar      1 <0>         0.1332
     16 C12        -2.5046   -1.4037    2.7020 C.ar      1 <0>        -0.1139
     17 N5         -4.7665   -2.1449    2.9776 N.2       1 <0>        -0.3432
     18 N6         -4.3385   -3.3240    3.2784 N.2       1 <0>         0.0636
     19 N7         -5.2500   -4.3443    3.5800 N.pl3     1 <0>        -0.4603
     20 C13        -6.6892   -4.0721    3.5536 C.3       1 <0>         0.0634
     21 C14        -4.7639   -5.6834    3.9217 C.3       1 <0>         0.1334
     22 C15        -4.6686   -5.8186    5.4427 C.3       1 <0>         0.2113
     23 O1         -5.9635   -5.6036    6.0288 O.3       1 <0>        -0.3725
     24 C16        -5.6965   -4.9146    7.2739 C.3       1 <0>         0.0185
     25 C17        -4.4973   -4.0145    6.8847 C.3       1 <0>         0.0258
     26 O2         -3.7598   -4.8366    5.9576 O.3       1 <0>        -0.3775
     27 Cl1        -6.0405    0.4557    2.3245 Cl        1 <0>        -0.0285
     28 H1         -1.4323   -2.0469    0.0456 H         1 <0>         0.0714
     29 H2         -1.0681   -1.5097   -1.6118 H         1 <0>         0.0885
     30 H3          0.1400   -2.4380   -0.6915 H         1 <0>         0.0623
     31 H4          0.6684    0.0095   -0.7734 H         1 <0>         0.1048
     32 H5         -0.8669    0.3419    0.0637 H         1 <0>         0.1236
     33 H6          4.3084   -1.5525    3.3310 H         1 <0>         0.4453
     34 H7          4.3598   -1.3753    1.6611 H         1 <0>         0.4304
     35 H8         -1.1279   -0.7418    4.8484 H         1 <0>         0.4320
     36 H9          0.2951   -1.0903    5.6708 H         1 <0>         0.4285
     37 H10        -1.3808    1.6791    1.8500 H         1 <0>         0.1398
     38 H11        -3.7969    2.1250    1.8078 H         1 <0>         0.1515
     39 H12        -2.1426   -2.3906    2.9495 H         1 <0>         0.1422
     40 H13        -7.0781   -4.2695    2.5547 H         1 <0>         0.0597
     41 H14        -7.1940   -4.7161    4.2738 H         1 <0>         0.0877
     42 H15        -6.8664   -3.0283    3.8129 H         1 <0>         0.0800
     43 H16        -5.4553   -6.4311    3.5331 H         1 <0>         0.1104
     44 H17        -3.7787   -5.8357    3.4810 H         1 <0>         0.1069
     45 H18        -4.3137   -6.8166    5.7001 H         1 <0>         0.1010
     46 H19        -6.5531   -4.3133    7.5786 H         1 <0>         0.1112
     47 H20        -5.4176   -5.6190    8.0576 H         1 <0>         0.0815
     48 H21        -4.8424   -3.1015    6.3997 H         1 <0>         0.0694
     49 H22        -3.8906   -3.7815    7.7598 H         1 <0>         0.1004
     50 H23         2.4206   -0.9056    0.4984 H         1 <0>         0.4417
@<TRIPOS>BOND
     1    1    2 1
     2    1   28 1
     3    1   29 1
     4    1   30 1
     5    2    3 1
     6    2   31 1
     7    2   32 1
     8    3    8 ar
     9    3    4 ar
    10    4    5 ar
    11    4   11 1
    12    5    6 ar
    13    5   10 1
    14    6    7 ar
    15    7    8 ar
    16    7    9 1
    17    8   50 1
    18    9   33 1
    19    9   34 1
    20   10   35 1
    21   10   36 1
    22   11   16 ar
    23   11   12 ar
    24   12   13 ar
    25   12   37 1
    26   13   14 ar
    27   13   38 1
    28   14   15 ar
    29   14   27 1
    30   15   16 ar
    31   15   17 1
    32   16   39 1
    33   17   18 2
    34   18   19 1
    35   19   20 1
    36   19   21 1
    37   20   40 1
    38   20   41 1
    39   20   42 1
    40   21   22 1
    41   21   43 1
    42   21   44 1
    43   22   26 1
    44   22   23 1
    45   22   45 1
    46   23   24 1
    47   24   25 1
    48   24   46 1
    49   24   47 1
    50   25   26 1
    51   25   48 1
    52   25   49 1
@<TRIPOS>MOLECULE
CHEMBL54659__3
   49    51     0     0     0
SMALL
USER_CHARGES

@<TRIPOS>ATOM
      1 C1         -0.0187    1.5258    0.0104 C.3       1 <0>        -0.1414
      2 C2          0.0021   -0.0041    0.0020 C.3       1 <0>        -0.0810
      3 C3          0.7074   -0.4901   -1.2379 C.ar      1 <0>         0.2687
      4 C4         -0.0072   -0.7230   -2.4108 C.ar      1 <0>        -0.2849
      5 C5          0.6976   -1.1758   -3.5414 C.ar      1 <0>         0.4991
      6 N1          2.0092   -1.3625   -3.4473 N.ar      1 <0>        -0.6304
      7 C6          2.6467   -1.1276   -2.3102 C.ar      1 <0>         0.6105
      8 N2          2.0145   -0.6958   -1.2283 N.ar      1 <0>        -0.6027
      9 N3          4.0134   -1.3339   -2.2518 N.pl3     1 <0>        -0.8193
     10 N4          0.0355   -1.4228   -4.7308 N.pl3     1 <0>        -0.8289
     11 C7         -1.4723   -0.5002   -2.4663 C.ar      1 <0>         0.0007
     12 C8         -2.3276   -1.2823   -1.6899 C.ar      1 <0>        -0.0969
     13 C9         -3.6921   -1.0768   -1.7391 C.ar      1 <0>        -0.0982
     14 C10        -4.2195   -0.0958   -2.5572 C.ar      1 <0>        -0.0071
     15 C11        -3.3731    0.6937   -3.3392 C.ar      1 <0>         0.1184
     16 C12        -1.9952    0.4930   -3.2884 C.ar      1 <0>        -0.1187
     17 N5         -3.8969    1.6675   -4.1519 N.2       1 <0>        -0.3308
     18 N6         -3.1137    2.3956   -4.8733 N.2       1 <0>         0.0599
     19 N7         -3.6485    3.3898   -5.7030 N.pl3     1 <0>        -0.4766
     20 C13        -5.0971    3.6026   -5.7512 C.3       1 <0>         0.0685
     21 C14        -2.7590    4.2167   -6.5224 C.3       1 <0>         0.1374
     22 C15        -2.6529    3.6158   -7.9254 C.3       1 <0>         0.2111
     23 O1         -3.9577    3.5572   -8.5257 O.3       1 <0>        -0.3742
     24 C16        -3.9528    2.3363   -9.3040 C.3       1 <0>         0.0191
     25 C17        -3.1052    1.3968   -8.4102 C.3       1 <0>         0.0263
     26 O2         -2.1232    2.2862   -7.8411 O.3       1 <0>        -0.3727
     27 Cl1        -5.9363    0.1555   -2.6134 Cl        1 <0>        -0.0513
     28 H1          1.0039    1.9031    0.0027 H         1 <0>         0.0591
     29 H2         -0.5459    1.8868   -0.8726 H         1 <0>         0.0552
     30 H3         -0.5289    1.8773    0.9072 H         1 <0>         0.0654
     31 H4          0.5293   -0.3651    0.8851 H         1 <0>         0.0876
     32 H5         -1.0205   -0.3814    0.0098 H         1 <0>         0.0881
     33 H6          4.4907   -1.6462   -3.0364 H         1 <0>         0.4137
     34 H7          4.4943   -1.1663   -1.4263 H         1 <0>         0.4157
     35 H8         -0.9227   -1.2840   -4.7903 H         1 <0>         0.4121
     36 H9          0.5294   -1.7347   -5.5051 H         1 <0>         0.4074
     37 H10        -1.9215   -2.0508   -1.0489 H         1 <0>         0.1353
     38 H11        -4.3498   -1.6853   -1.1363 H         1 <0>         0.1424
     39 H12        -1.3360    1.1033   -3.8879 H         1 <0>         0.1377
     40 H13        -5.3820    4.3354   -4.9962 H         1 <0>         0.0530
     41 H14        -5.3778    3.9701   -6.7382 H         1 <0>         0.0817
     42 H15        -5.6094    2.6607   -5.5549 H         1 <0>         0.0768
     43 H16        -3.1619    5.2273   -6.5895 H         1 <0>         0.1046
     44 H17        -1.7700    4.2494   -6.0654 H         1 <0>         0.1062
     45 H18        -1.9971    4.2330   -8.5395 H         1 <0>         0.0971
     46 H19        -4.9640    1.9490   -9.4287 H         1 <0>         0.1086
     47 H20        -3.4741    2.4918  -10.2709 H         1 <0>         0.0784
     48 H21        -3.7200    0.9508   -7.6284 H         1 <0>         0.0703
     49 H22        -2.6238    0.6249   -9.0106 H         1 <0>         0.0991
@<TRIPOS>BOND
     1    1    2 1
     2    1   28 1
     3    1   29 1
     4    1   30 1
     5    2    3 1
     6    2   31 1
     7    2   32 1
     8    3    8 ar
     9    3    4 ar
    10    4    5 ar
    11    4   11 1
    12    5    6 ar
    13    5   10 1
    14    6    7 ar
    15    7    8 ar
    16    7    9 1
    17    9   33 1
    18    9   34 1
    19   10   35 1
    20   10   36 1
    21   11   16 ar
    22   11   12 ar
    23   12   13 ar
    24   12   37 1
    25   13   14 ar
    26   13   38 1
    27   14   15 ar
    28   14   27 1
    29   15   16 ar
    30   15   17 1
    31   16   39 1
    32   17   18 2
    33   18   19 1
    34   19   20 1
    35   19   21 1
    36   20   40 1
    37   20   41 1
    38   20   42 1
    39   21   22 1
    40   21   43 1
    41   21   44 1
    42   22   26 1
    43   22   23 1
    44   22   45 1
    45   23   24 1
    46   24   25 1
    47   24   46 1
    48   24   47 1
    49   25   26 1
    50   25   48 1
    51   25   49 1
@<TRIPOS>MOLECULE
CHEMBL147137
   50    54     0     0     0
SMALL
USER_CHARGES

@<TRIPOS>ATOM
      1 C1         -3.1856  -16.4254    6.0648 C.3       1 <0>        -0.1481
      2 C2         -3.3959  -14.9425    5.8983 C.ar      1 <0>         0.0649
      3 C3         -2.4302  -14.0462    6.2757 C.ar      1 <0>        -0.1674
      4 C4         -2.6482  -12.6840    6.1113 C.ar      1 <0>         0.2360
      5 N1         -3.7656  -12.2188    5.5988 N.ar      1 <0>        -0.4954
      6 C5         -4.7430  -13.0392    5.2125 C.ar      1 <0>         0.3983
      7 C6         -4.5807  -14.4401    5.3485 C.ar      1 <0>        -0.2373
      8 C7         -5.6339  -15.2881    4.9248 C.ar      1 <0>         0.5805
      9 N2         -6.7226  -14.7299    4.4152 N.ar      1 <0>        -0.5770
     10 C8         -6.8330  -13.4095    4.3005 C.ar      1 <0>         0.6966
     11 N3         -5.8867  -12.5754    4.6890 N.ar      1 <0>        -0.5700
     12 N4         -7.9932  -12.8877    3.7611 N.pl3     1 <0>        -0.7794
     13 N5         -5.5287  -16.6569    5.0391 N.pl3     1 <0>        -0.8131
     14 C9         -1.1345  -14.5373    6.8681 C.3       1 <0>         0.1749
     15 N6         -0.2454  -14.9863    5.7938 N.pl3     1 <0>        -0.7749
     16 C10         0.5487  -14.0683    5.1212 C.ar      1 <0>         0.1740
     17 C11         1.7571  -13.6329    5.6828 C.ar      1 <0>        -0.0498
     18 C12         2.1922  -14.1124    6.9340 C.ar      1 <0>        -0.1063
     19 C13         3.3687  -13.6701    7.4496 C.ar      1 <0>        -0.1080
     20 C14         4.1651  -12.7475    6.7717 C.ar      1 <0>        -0.1112
     21 C15         3.8040  -12.2461    5.5627 C.ar      1 <0>        -0.1051
     22 C16         2.5932  -12.6637    4.9692 C.ar      1 <0>        -0.0433
     23 C17         2.1925  -12.1682    3.7289 C.ar      1 <0>        -0.0848
     24 C18         0.9908  -12.5980    3.1670 C.ar      1 <0>        -0.0475
     25 C19         0.1527  -13.5723    3.8712 C.ar      1 <0>        -0.0545
     26 C20        -1.0517  -13.9899    3.2713 C.ar      1 <0>        -0.1074
     27 C21        -1.4057  -13.4899    2.0587 C.ar      1 <0>        -0.1159
     28 C22        -0.6054  -12.5681    1.3842 C.ar      1 <0>        -0.1209
     29 C23         0.5598  -12.1136    1.9131 C.ar      1 <0>        -0.0953
     30 H1         -3.9987  -16.8433    6.6583 H         1 <0>         0.1038
     31 H2         -3.1688  -16.9023    5.0848 H         1 <0>         0.0931
     32 H3         -2.2371  -16.6032    6.5717 H         1 <0>         0.1006
     33 H4         -1.8791  -11.9885    6.4132 H         1 <0>         0.1860
     34 H5         -8.7052  -13.4814    3.4757 H         1 <0>         0.4476
     35 H6         -8.0957  -11.9276    3.6679 H         1 <0>         0.4332
     36 H7         -4.7103  -17.1044    4.7729 H         1 <0>         0.4322
     37 H8         -6.2731  -17.1732    5.3859 H         1 <0>         0.4295
     38 H9         -0.6573  -13.7275    7.4200 H         1 <0>         0.0888
     39 H10        -1.3360  -15.3683    7.5441 H         1 <0>         0.0994
     40 H11        -0.2119  -15.9252    5.5526 H         1 <0>         0.4022
     41 H12         1.5940  -14.8268    7.4801 H         1 <0>         0.1291
     42 H13         3.6956  -14.0423    8.4093 H         1 <0>         0.1238
     43 H14         5.0926  -12.4232    7.2200 H         1 <0>         0.1254
     44 H15         4.4388  -11.5325    5.0584 H         1 <0>         0.1315
     45 H16         2.8105  -11.4538    3.2054 H         1 <0>         0.1359
     46 H17        -1.6894  -14.7033    3.7721 H         1 <0>         0.1157
     47 H18        -2.3305  -13.8148    1.6052 H         1 <0>         0.1112
     48 H19        -0.9263  -12.1975    0.4219 H         1 <0>         0.1220
     49 H20         1.1609  -11.3990    1.3706 H         1 <0>         0.1317
     50 H21        -6.0154  -11.6197    4.5847 H         1 <0>         0.4448
@<TRIPOS>BOND
     1    1    2 1
     2    1   30 1
     3    1   31 1
     4    1   32 1
     5    2    7 ar
     6    2    3 ar
     7    3    4 ar
     8    3   14 1
     9    4    5 ar
    10    4   33 1
    11    5    6 ar
    12    6   11 ar
    13    6    7 ar
    14    7    8 ar
    15    8    9 ar
    16    8   13 1
    17    9   10 ar
    18   10   11 ar
    19   10   12 1
    20   11   50 1
    21   12   34 1
    22   12   35 1
    23   13   36 1
    24   13   37 1
    25   14   15 1
    26   14   38 1
    27   14   39 1
    28   15   16 1
    29   15   40 1
    30   16   25 ar
    31   16   17 ar
    32   17   22 ar
    33   17   18 ar
    34   18   19 ar
    35   18   41 1
    36   19   20 ar
    37   19   42 1
    38   20   21 ar
    39   20   43 1
    40   21   22 ar
    41   21   44 1
    42   22   23 ar
    43   23   24 ar
    44   23   45 1
    45   24   29 ar
    46   24   25 ar
    47   25   26 ar
    48   26   27 ar
    49   26   46 1
    50   27   28 ar
    51   27   47 1
    52   28   29 ar
    53   28   48 1
    54   29   49 1
@<TRIPOS>MOLECULE
CHEMBL147137__1
   49    53     0     0     0
SMALL
USER_CHARGES

@<TRIPOS>ATOM
      1 C1         -3.1856  -16.4254    6.0648 C.3       1 <0>        -0.1316
      2 C2         -3.3959  -14.9425    5.8983 C.ar      1 <0>         0.0458
      3 C3         -2.4302  -14.0462    6.2757 C.ar      1 <0>        -0.2078
      4 C4         -2.6482  -12.6840    6.1113 C.ar      1 <0>         0.2067
      5 N1         -3.7656  -12.2188    5.5988 N.ar      1 <0>        -0.4865
      6 C5         -4.7430  -13.0392    5.2125 C.ar      1 <0>         0.4104
      7 C6         -4.5807  -14.4401    5.3485 C.ar      1 <0>        -0.2765
      8 C7         -5.6339  -15.2881    4.9248 C.ar      1 <0>         0.5218
      9 N2         -6.7226  -14.7299    4.4152 N.ar      1 <0>        -0.6147
     10 C8         -6.8330  -13.4095    4.3005 C.ar      1 <0>         0.6196
     11 N3         -5.8867  -12.5754    4.6890 N.ar      1 <0>        -0.5889
     12 N4         -7.9932  -12.8877    3.7611 N.pl3     1 <0>        -0.8129
     13 N5         -5.5287  -16.6569    5.0391 N.pl3     1 <0>        -0.8534
     14 C9         -1.1345  -14.5373    6.8681 C.3       1 <0>         0.1866
     15 N6         -0.2454  -14.9863    5.7938 N.pl3     1 <0>        -0.7801
     16 C10         0.5487  -14.0683    5.1212 C.ar      1 <0>         0.1963
     17 C11         1.7571  -13.6329    5.6828 C.ar      1 <0>        -0.0616
     18 C12         2.1922  -14.1124    6.9340 C.ar      1 <0>        -0.0941
     19 C13         3.3687  -13.6701    7.4496 C.ar      1 <0>        -0.1222
     20 C14         4.1651  -12.7475    6.7717 C.ar      1 <0>        -0.1131
     21 C15         3.8040  -12.2461    5.5627 C.ar      1 <0>        -0.1095
     22 C16         2.5932  -12.6637    4.9692 C.ar      1 <0>        -0.0405
     23 C17         2.1925  -12.1682    3.7289 C.ar      1 <0>        -0.0997
     24 C18         0.9908  -12.5980    3.1670 C.ar      1 <0>        -0.0391
     25 C19         0.1527  -13.5723    3.8712 C.ar      1 <0>        -0.0585
     26 C20        -1.0517  -13.9899    3.2713 C.ar      1 <0>        -0.0894
     27 C21        -1.4057  -13.4899    2.0587 C.ar      1 <0>        -0.1215
     28 C22        -0.6054  -12.5681    1.3842 C.ar      1 <0>        -0.1092
     29 C23         0.5598  -12.1136    1.9131 C.ar      1 <0>        -0.1103
     30 H1         -3.9987  -16.8433    6.6583 H         1 <0>         0.0902
     31 H2         -3.1688  -16.9023    5.0848 H         1 <0>         0.0776
     32 H3         -2.2371  -16.6032    6.5717 H         1 <0>         0.0804
     33 H4         -1.8791  -11.9885    6.4132 H         1 <0>         0.1585
     34 H5         -8.7052  -13.4814    3.4757 H         1 <0>         0.4153
     35 H6         -8.0957  -11.9276    3.6679 H         1 <0>         0.4180
     36 H7         -4.7103  -17.1044    4.7729 H         1 <0>         0.4143
     37 H8         -6.2731  -17.1732    5.3859 H         1 <0>         0.4090
     38 H9         -0.6573  -13.7275    7.4200 H         1 <0>         0.0759
     39 H10        -1.3360  -15.3683    7.5441 H         1 <0>         0.0863
     40 H11        -0.2119  -15.9252    5.5526 H         1 <0>         0.3980
     41 H12         1.5940  -14.8268    7.4801 H         1 <0>         0.1284
     42 H13         3.6956  -14.0423    8.4093 H         1 <0>         0.1196
     43 H14         5.0926  -12.4232    7.2200 H         1 <0>         0.1204
     44 H15         4.4388  -11.5325    5.0584 H         1 <0>         0.1274
     45 H16         2.8105  -11.4538    3.2054 H         1 <0>         0.1316
     46 H17        -1.6894  -14.7033    3.7721 H         1 <0>         0.1223
     47 H18        -2.3305  -13.8148    1.6052 H         1 <0>         0.1130
     48 H19        -0.9263  -12.1975    0.4219 H         1 <0>         0.1198
     49 H20         1.1609  -11.3990    1.3706 H         1 <0>         0.1281
@<TRIPOS>BOND
     1    1    2 1
     2    1   30 1
     3    1   31 1
     4    1   32 1
     5    2    7 ar
     6    2    3 ar
     7    3    4 ar
     8    3   14 1
     9    4    5 ar
    10    4   33 1
    11    5    6 ar
    12    6   11 ar
    13    6    7 ar
    14    7    8 ar
    15    8    9 ar
    16    8   13 1
    17    9   10 ar
    18   10   11 ar
    19   10   12 1
    20   12   34 1
    21   12   35 1
    22   13   36 1
    23   13   37 1
    24   14   15 1
    25   14   38 1
    26   14   39 1
    27   15   16 1
    28   15   40 1
    29   16   25 ar
    30   16   17 ar
    31   17   22 ar
    32   17   18 ar
    33   18   19 ar
    34   18   41 1
    35   19   20 ar
    36   19   42 1
    37   20   21 ar
    38   20   43 1
    39   21   22 ar
    40   21   44 1
    41   22   23 ar
    42   23   24 ar
    43   23   45 1
    44   24   29 ar
    45   24   25 ar
    46   25   26 ar
    47   26   27 ar
    48   26   46 1
    49   27   28 ar
    50   27   47 1
    51   28   29 ar
    52   28   48 1
    53   29   49 1
@<TRIPOS>MOLECULE
CHEMBL147469
   43    46     0     0     0
SMALL
USER_CHARGES

@<TRIPOS>ATOM
      1 C1          0.6027    1.5059    0.0256 C.3       1 <0>        -0.1679
      2 C2          0.5978   -0.0011    0.0167 C.ar      1 <0>         0.0775
      3 C3          0.7711   -0.7002   -1.1492 C.ar      1 <0>        -0.1744
      4 C4          0.7631   -2.0894   -1.1308 C.ar      1 <0>         0.2401
      5 N1          0.5923   -2.7658   -0.0167 N.ar      1 <0>        -0.4986
      6 C5          0.4186   -2.1439    1.1496 C.ar      1 <0>         0.4081
      7 C6          0.4219   -0.7279    1.1996 C.ar      1 <0>        -0.2409
      8 C7          0.2403   -0.0941    2.4537 C.ar      1 <0>         0.5786
      9 N2          0.0801   -0.8575    3.5253 N.ar      1 <0>        -0.5780
     10 C8          0.0882   -2.1844    3.4357 C.ar      1 <0>         0.6997
     11 N3          0.2432   -2.8239    2.2916 N.ar      1 <0>        -0.5724
     12 N4         -0.0838   -2.9256    4.5891 N.pl3     1 <0>        -0.7766
     13 N5          0.2308    1.2796    2.5567 N.pl3     1 <0>        -0.8021
     14 C9          0.9696    0.0364   -2.4489 C.3       1 <0>         0.1657
     15 N6          2.3622    0.4797   -2.5512 N.pl3     1 <0>        -0.7481
     16 C10         2.7884    1.1885   -3.6763 C.ar      1 <0>         0.2115
     17 C11         1.8783    1.4774   -4.7006 C.ar      1 <0>        -0.1579
     18 C12         2.2649    2.1655   -5.8068 C.ar      1 <0>        -0.0421
     19 C13         3.5968    2.5993   -5.9352 C.ar      1 <0>         0.0858
     20 C14         4.5229    2.3105   -4.9018 C.ar      1 <0>        -0.0540
     21 C15         4.0993    1.6026   -3.7665 C.ar      1 <0>        -0.1874
     22 C16         5.8544    2.7475   -5.0364 C.ar      1 <0>        -0.0775
     23 C17         6.1960    3.4355   -6.1659 C.ar      1 <0>        -0.1567
     24 C18         5.2363    3.6859   -7.1439 C.ar      1 <0>         0.1166
     25 N7          3.9971    3.2778   -7.0151 N.ar      1 <0>        -0.4632
     26 H1          1.5940    1.8644    0.3030 H         1 <0>         0.1067
     27 H2          0.3472    1.8760   -0.9673 H         1 <0>         0.1067
     28 H3         -0.1295    1.8674    0.7476 H         1 <0>         0.1060
     29 H4          0.9004   -2.6280   -2.0567 H         1 <0>         0.1948
     30 H5         -0.2071   -2.4769    5.4402 H         1 <0>         0.4485
     31 H6         -0.0814   -3.8947    4.5477 H         1 <0>         0.4341
     32 H7         -0.4109    1.7180    3.1371 H         1 <0>         0.4312
     33 H8          0.8658    1.8084    2.0488 H         1 <0>         0.4361
     34 H9          0.7374   -0.6273   -3.2818 H         1 <0>         0.0859
     35 H10         0.3092    0.9030   -2.4798 H         1 <0>         0.0858
     36 H11         2.9882    0.2808   -1.8374 H         1 <0>         0.4005
     37 H12         0.8537    1.1482   -4.6102 H         1 <0>         0.1300
     38 H13         1.5498    2.3789   -6.5874 H         1 <0>         0.1398
     39 H14         4.7962    1.3807   -2.9719 H         1 <0>         0.1259
     40 H15         6.5854    2.5447   -4.2677 H         1 <0>         0.1366
     41 H16         7.2089    3.7853   -6.3004 H         1 <0>         0.1390
     42 H17         5.5205    4.2310   -8.0318 H         1 <0>         0.1605
     43 H18         0.2412   -3.7938    2.2786 H         1 <0>         0.4463
@<TRIPOS>BOND
     1    1    2 1
     2    1   26 1
     3    1   27 1
     4    1   28 1
     5    2    7 ar
     6    2    3 ar
     7    3    4 ar
     8    3   14 1
     9    4    5 ar
    10    4   29 1
    11    5    6 ar
    12    6   11 ar
    13    6    7 ar
    14    7    8 ar
    15    8    9 ar
    16    8   13 1
    17    9   10 ar
    18   10   11 ar
    19   10   12 1
    20   11   43 1
    21   12   30 1
    22   12   31 1
    23   13   32 1
    24   13   33 1
    25   14   15 1
    26   14   34 1
    27   14   35 1
    28   15   16 1
    29   15   36 1
    30   16   21 ar
    31   16   17 ar
    32   17   18 ar
    33   17   37 1
    34   18   19 ar
    35   18   38 1
    36   19   25 ar
    37   19   20 ar
    38   20   21 ar
    39   20   22 ar
    40   21   39 1
    41   22   23 ar
    42   22   40 1
    43   23   24 ar
    44   23   41 1
    45   24   25 ar
    46   24   42 1
@<TRIPOS>MOLECULE
CHEMBL147469__1
   42    45     0     0     0
SMALL
USER_CHARGES

@<TRIPOS>ATOM
      1 C1          0.6027    1.5059    0.0256 C.3       1 <0>        -0.1544
      2 C2          0.5978   -0.0011    0.0167 C.ar      1 <0>         0.0608
      3 C3          0.7711   -0.7002   -1.1492 C.ar      1 <0>        -0.2186
      4 C4          0.7631   -2.0894   -1.1308 C.ar      1 <0>         0.2102
      5 N1          0.5923   -2.7658   -0.0167 N.ar      1 <0>        -0.4892
      6 C5          0.4186   -2.1439    1.1496 C.ar      1 <0>         0.4170
      7 C6          0.4219   -0.7279    1.1996 C.ar      1 <0>        -0.2829
      8 C7          0.2403   -0.0941    2.4537 C.ar      1 <0>         0.5249
      9 N2          0.0801   -0.8575    3.5253 N.ar      1 <0>        -0.6168
     10 C8          0.0882   -2.1844    3.4357 C.ar      1 <0>         0.6257
     11 N3          0.2432   -2.8239    2.2916 N.ar      1 <0>        -0.5914
     12 N4         -0.0838   -2.9256    4.5891 N.pl3     1 <0>        -0.8098
     13 N5          0.2308    1.2796    2.5567 N.pl3     1 <0>        -0.8449
     14 C9          0.9696    0.0364   -2.4489 C.3       1 <0>         0.1750
     15 N6          2.3622    0.4797   -2.5512 N.pl3     1 <0>        -0.7404
     16 C10         2.7884    1.1885   -3.6763 C.ar      1 <0>         0.2238
     17 C11         1.8783    1.4774   -4.7006 C.ar      1 <0>        -0.1551
     18 C12         2.2649    2.1655   -5.8068 C.ar      1 <0>        -0.0458
     19 C13         3.5968    2.5993   -5.9352 C.ar      1 <0>         0.0794
     20 C14         4.5229    2.3105   -4.9018 C.ar      1 <0>        -0.0482
     21 C15         4.0993    1.6026   -3.7665 C.ar      1 <0>        -0.2011
     22 C16         5.8544    2.7475   -5.0364 C.ar      1 <0>        -0.0788
     23 C17         6.1960    3.4355   -6.1659 C.ar      1 <0>        -0.1607
     24 C18         5.2363    3.6859   -7.1439 C.ar      1 <0>         0.1064
     25 N7          3.9971    3.2778   -7.0151 N.ar      1 <0>        -0.4623
     26 H1          1.5940    1.8644    0.3030 H         1 <0>         0.0870
     27 H2          0.3472    1.8760   -0.9673 H         1 <0>         0.0857
     28 H3         -0.1295    1.8674    0.7476 H         1 <0>         0.0997
     29 H4          0.9004   -2.6280   -2.0567 H         1 <0>         0.1678
     30 H5         -0.2071   -2.4769    5.4402 H         1 <0>         0.4166
     31 H6         -0.0814   -3.8947    4.5477 H         1 <0>         0.4192
     32 H7         -0.4109    1.7180    3.1371 H         1 <0>         0.4111
     33 H8          0.8658    1.8084    2.0488 H         1 <0>         0.4185
     34 H9          0.7374   -0.6273   -3.2818 H         1 <0>         0.0749
     35 H10         0.3092    0.9030   -2.4798 H         1 <0>         0.0745
     36 H11         2.9882    0.2808   -1.8374 H         1 <0>         0.4016
     37 H12         0.8537    1.1482   -4.6102 H         1 <0>         0.1313
     38 H13         1.5498    2.3789   -6.5874 H         1 <0>         0.1373
     39 H14         4.7962    1.3807   -2.9719 H         1 <0>         0.1254
     40 H15         6.5854    2.5447   -4.2677 H         1 <0>         0.1348
     41 H16         7.2089    3.7853   -6.3004 H         1 <0>         0.1351
     42 H17         5.5205    4.2310   -8.0318 H         1 <0>         0.1564
@<TRIPOS>BOND
     1    1    2 1
     2    1   26 1
     3    1   27 1
     4    1   28 1
     5    2    7 ar
     6    2    3 ar
     7    3    4 ar
     8    3   14 1
     9    4    5 ar
    10    4   29 1
    11    5    6 ar
    12    6   11 ar
    13    6    7 ar
    14    7    8 ar
    15    8    9 ar
    16    8   13 1
    17    9   10 ar
    18   10   11 ar
    19   10   12 1
    20   12   30 1
    21   12   31 1
    22   13   32 1
    23   13   33 1
    24   14   15 1
    25   14   34 1
    26   14   35 1
    27   15   16 1
    28   15   36 1
    29   16   21 ar
    30   16   17 ar
    31   17   18 ar
    32   17   37 1
    33   18   19 ar
    34   18   38 1
    35   19   25 ar
    36   19   20 ar
    37   20   21 ar
    38   20   22 ar
    39   21   39 1
    40   22   23 ar
    41   22   40 1
    42   23   24 ar
    43   23   41 1
    44   24   25 ar
    45   24   42 1
@<TRIPOS>MOLECULE
CHEMBL7170
   39    41     0     0     0
SMALL
USER_CHARGES

@<TRIPOS>ATOM
      1 C1         -0.0189    1.5396    0.0105 C.3       1 <0>        -0.1589
      2 C2          1.4941    1.8898   -0.0021 C.3       1 <0>        -0.1548
      3 C3          2.0564    0.7339   -0.8673 C.3       1 <0>         0.0768
      4 O1          1.2747   -0.4169   -0.5096 O.3       1 <0>        -0.3811
      5 C4          0.0021   -0.0041    0.0020 C.3       1 <0>         0.0496
      6 C5          3.5321    0.4957   -0.5411 C.3       1 <0>        -0.1150
      7 C6          4.1001   -0.5613   -1.4903 C.3       1 <0>        -0.0876
      8 C7          5.5502   -0.8750   -1.1040 C.3       1 <0>        -0.1159
      9 C8          6.0140   -2.0888   -1.9079 C.3       1 <0>        -0.1014
     10 C9          5.7355   -1.8875   -3.3729 C.ar      1 <0>         0.2402
     11 C10         4.8469   -0.9478   -3.8349 C.ar      1 <0>        -0.2186
     12 C11         4.6469   -0.8384   -5.2168 C.ar      1 <0>         0.5305
     13 N1          5.3210   -1.6377   -6.0351 N.ar      1 <0>        -0.5775
     14 C12         6.1730   -2.5288   -5.5510 C.ar      1 <0>         0.6654
     15 N2          6.3783   -2.6544   -4.2501 N.ar      1 <0>        -0.5757
     16 N3          6.8643   -3.3480   -6.4264 N.pl3     1 <0>        -0.7932
     17 N4          3.7556    0.0930   -5.7241 N.pl3     1 <0>        -0.7787
     18 C13         4.0857   -0.0269   -2.9220 C.3       1 <0>        -0.0729
     19 H1         -0.4967    1.9161    0.9150 H         1 <0>         0.0858
     20 H2         -0.5138    1.9257   -0.8806 H         1 <0>         0.0775
     21 H3          1.6698    2.8560   -0.4751 H         1 <0>         0.0846
     22 H4          1.9113    1.8657    1.0047 H         1 <0>         0.0823
     23 H5          1.9340    0.9601   -1.9265 H         1 <0>         0.0686
     24 H6         -0.1287   -0.3812    1.0163 H         1 <0>         0.0724
     25 H7         -0.7944   -0.3812   -0.6395 H         1 <0>         0.0699
     26 H8          4.0857    1.4270   -0.6613 H         1 <0>         0.0825
     27 H9          3.6253    0.1479    0.4877 H         1 <0>         0.0831
     28 H10         3.4977   -1.4679   -1.4316 H         1 <0>         0.0927
     29 H11         6.1841   -0.0188   -1.3347 H         1 <0>         0.0809
     30 H12         5.6052   -1.0986   -0.0385 H         1 <0>         0.0974
     31 H13         7.0847   -2.2306   -1.7609 H         1 <0>         0.1102
     32 H14         5.4850   -2.9756   -1.5590 H         1 <0>         0.1201
     33 H15         6.7221   -3.2656   -7.3824 H         1 <0>         0.4446
     34 H16         7.4909   -4.0044   -6.0841 H         1 <0>         0.4300
     35 H17         3.2658    0.6740   -5.1213 H         1 <0>         0.4311
     36 H18         3.6213    0.1640   -6.6822 H         1 <0>         0.4282
     37 H19         3.0547    0.0512   -3.2671 H         1 <0>         0.0902
     38 H20         4.5451    0.9613   -2.9423 H         1 <0>         0.0965
     39 H21         7.0092   -3.3179   -3.9298 H         1 <0>         0.4403
@<TRIPOS>BOND
     1    1    5 1
     2    1    2 1
     3    1   19 1
     4    1   20 1
     5    2    3 1
     6    2   21 1
     7    2   22 1
     8    3    4 1
     9    3    6 1
    10    3   23 1
    11    4    5 1
    12    5   24 1
    13    5   25 1
    14    6    7 1
    15    6   26 1
    16    6   27 1
    17    7   18 1
    18    7    8 1
    19    7   28 1
    20    8    9 1
    21    8   29 1
    22    8   30 1
    23    9   10 1
    24    9   31 1
    25    9   32 1
    26   10   15 ar
    27   10   11 ar
    28   11   12 ar
    29   11   18 1
    30   12   13 ar
    31   12   17 1
    32   13   14 ar
    33   14   15 ar
    34   14   16 1
    35   15   39 1
    36   16   33 1
    37   16   34 1
    38   17   35 1
    39   17   36 1
    40   18   37 1
    41   18   38 1
@<TRIPOS>MOLECULE
CHEMBL7170__1
   39    41     0     0     0
SMALL
USER_CHARGES

@<TRIPOS>ATOM
      1 C1         -0.0189    1.5396    0.0105 C.3       1 <0>        -0.1588
      2 C2          1.4941    1.8898   -0.0021 C.3       1 <0>        -0.1538
      3 C3          2.0564    0.7339   -0.8673 C.3       1 <0>         0.0785
      4 O1          1.2747   -0.4169   -0.5096 O.3       1 <0>        -0.3863
      5 C4          0.0021   -0.0041    0.0020 C.3       1 <0>         0.0488
      6 C5          3.5321    0.4957   -0.5411 C.3       1 <0>        -0.1156
      7 C6          4.1001   -0.5613   -1.4903 C.3       1 <0>        -0.0860
      8 C7          5.6018   -0.7317   -1.2327 C.3       1 <0>        -0.1167
      9 C8          6.1863   -1.6102   -2.3378 C.3       1 <0>        -0.0998
     10 C9          5.3810   -2.8724   -2.4882 C.ar      1 <0>         0.2319
     11 C10         4.1077   -3.0015   -1.9901 C.ar      1 <0>        -0.2156
     12 C11         3.4323   -4.2128   -2.1856 C.ar      1 <0>         0.5297
     13 N1          4.0401   -5.1964   -2.8385 N.ar      1 <0>        -0.5786
     14 C12         5.2710   -5.0347   -3.3000 C.ar      1 <0>         0.6642
     15 N2          5.9300   -3.9000   -3.1312 N.ar      1 <0>        -0.5761
     16 N3          5.8823   -6.0773   -3.9742 N.pl3     1 <0>        -0.7947
     17 N4          2.1449   -4.3830   -1.7030 N.pl3     1 <0>        -0.7761
     18 C13         3.4109   -1.9017   -1.2379 C.3       1 <0>        -0.0691
     19 H1         -0.4967    1.9161    0.9150 H         1 <0>         0.0850
     20 H2         -0.5138    1.9257   -0.8806 H         1 <0>         0.0781
     21 H3          1.6698    2.8560   -0.4751 H         1 <0>         0.0854
     22 H4          1.9113    1.8657    1.0047 H         1 <0>         0.0814
     23 H5          1.9340    0.9601   -1.9265 H         1 <0>         0.0732
     24 H6         -0.1287   -0.3812    1.0163 H         1 <0>         0.0716
     25 H7         -0.7944   -0.3812   -0.6395 H         1 <0>         0.0695
     26 H8          4.0857    1.4270   -0.6613 H         1 <0>         0.0870
     27 H9          3.6253    0.1479    0.4877 H         1 <0>         0.0789
     28 H10         3.9350   -0.2532   -2.5227 H         1 <0>         0.0830
     29 H11         6.0883    0.2436   -1.2443 H         1 <0>         0.0959
     30 H12         5.7555   -1.2095   -0.2652 H         1 <0>         0.0813
     31 H13         6.1742   -1.0607   -3.2792 H         1 <0>         0.1179
     32 H14         7.2156   -1.8671   -2.0873 H         1 <0>         0.1091
     33 H15         5.4095   -6.9143   -4.1040 H         1 <0>         0.4441
     34 H16         6.7835   -5.9711   -4.3169 H         1 <0>         0.4294
     35 H17         1.7062   -3.6609   -1.2265 H         1 <0>         0.4346
     36 H18         1.6823   -5.2242   -1.8415 H         1 <0>         0.4270
     37 H19         3.4346   -2.1238   -0.1710 H         1 <0>         0.0960
     38 H20         2.3736   -1.8412   -1.5672 H         1 <0>         0.1065
     39 H21         6.8301   -3.8156   -3.4828 H         1 <0>         0.4392
@<TRIPOS>BOND
     1    1    5 1
     2    1    2 1
     3    1   19 1
     4    1   20 1
     5    2    3 1
     6    2   21 1
     7    2   22 1
     8    3    4 1
     9    3    6 1
    10    3   23 1
    11    4    5 1
    12    5   24 1
    13    5   25 1
    14    6    7 1
    15    6   26 1
    16    6   27 1
    17    7   18 1
    18    7    8 1
    19    7   28 1
    20    8    9 1
    21    8   29 1
    22    8   30 1
    23    9   10 1
    24    9   31 1
    25    9   32 1
    26   10   15 ar
    27   10   11 ar
    28   11   12 ar
    29   11   18 1
    30   12   13 ar
    31   12   17 1
    32   13   14 ar
    33   14   15 ar
    34   14   16 1
    35   15   39 1
    36   16   33 1
    37   16   34 1
    38   17   35 1
    39   17   36 1
    40   18   37 1
    41   18   38 1
@<TRIPOS>MOLECULE
CHEMBL7170__2
   39    41     0     0     0
SMALL
USER_CHARGES

@<TRIPOS>ATOM
      1 C1         -0.0188    1.5368    0.0105 C.3       1 <0>        -0.1593
      2 C2          1.4767    1.9366   -0.0016 C.3       1 <0>        -0.1520
      3 C3          2.1612    0.6496    0.5251 C.3       1 <0>         0.0739
      4 O1          1.3788   -0.4124   -0.0619 O.3       1 <0>        -0.3805
      5 C4          0.0021   -0.0041    0.0020 C.3       1 <0>         0.0454
      6 C5          3.6127    0.5770    0.0470 C.3       1 <0>        -0.1107
      7 C6          4.2987   -0.6346    0.6814 C.3       1 <0>        -0.0868
      8 C7          5.7792   -0.6554    0.2836 C.3       1 <0>        -0.1166
      9 C8          6.4877   -1.7280    1.1095 C.3       1 <0>        -0.0998
     10 C9          5.7477   -3.0352    1.0205 C.ar      1 <0>         0.2322
     11 C10         4.4432   -3.1198    0.5992 C.ar      1 <0>        -0.2159
     12 C11         3.8343   -4.3804    0.5564 C.ar      1 <0>         0.5297
     13 N1          4.5324   -5.4506    0.9175 N.ar      1 <0>        -0.5785
     14 C12         5.7902   -5.3284    1.3139 C.ar      1 <0>         0.6643
     15 N2          6.3880   -4.1494    1.3661 N.ar      1 <0>        -0.5761
     16 N3          6.4956   -6.4606    1.6827 N.pl3     1 <0>        -0.7946
     17 N4          2.5185   -4.5092    0.1425 N.pl3     1 <0>        -0.7762
     18 C13         3.6437   -1.9191    0.1751 C.3       1 <0>        -0.0698
     19 H1         -0.5053    1.9068    0.9130 H         1 <0>         0.0770
     20 H2         -0.5224    1.9164   -0.8785 H         1 <0>         0.0801
     21 H3          1.8093    2.1678   -1.0136 H         1 <0>         0.0801
     22 H4          1.6602    2.7768    0.6681 H         1 <0>         0.0823
     23 H5          2.1118    0.6064    1.6131 H         1 <0>         0.0724
     24 H6         -0.4558   -0.3860    0.9145 H         1 <0>         0.0596
     25 H7         -0.5361   -0.3772   -0.8693 H         1 <0>         0.0859
     26 H8          3.6333    0.4792   -1.0384 H         1 <0>         0.0806
     27 H9          4.1376    1.4863    0.3398 H         1 <0>         0.0885
     28 H10         4.2084   -0.5802    1.7663 H         1 <0>         0.0832
     29 H11         5.8702   -0.8900   -0.7769 H         1 <0>         0.0817
     30 H12         6.2266    0.3178    0.4861 H         1 <0>         0.0963
     31 H13         7.5017   -1.8617    0.7326 H         1 <0>         0.1093
     32 H14         6.5327   -1.4096    2.1510 H         1 <0>         0.1180
     33 H15         6.0681   -7.3307    1.6490 H         1 <0>         0.4442
     34 H16         7.4174   -6.3840    1.9748 H         1 <0>         0.4295
     35 H17         2.0135   -3.7236   -0.1198 H         1 <0>         0.4345
     36 H18         2.1022   -5.3849    0.1150 H         1 <0>         0.4271
     37 H19         2.6359   -1.9948    0.5834 H         1 <0>         0.1049
     38 H20         3.5870   -1.8900   -0.9130 H         1 <0>         0.0968
     39 H21         7.3103   -4.0960    1.6617 H         1 <0>         0.4393
@<TRIPOS>BOND
     1    1    5 1
     2    1    2 1
     3    1   19 1
     4    1   20 1
     5    2    3 1
     6    2   21 1
     7    2   22 1
     8    3    4 1
     9    3    6 1
    10    3   23 1
    11    4    5 1
    12    5   24 1
    13    5   25 1
    14    6    7 1
    15    6   26 1
    16    6   27 1
    17    7   18 1
    18    7    8 1
    19    7   28 1
    20    8    9 1
    21    8   29 1
    22    8   30 1
    23    9   10 1
    24    9   31 1
    25    9   32 1
    26   10   15 ar
    27   10   11 ar
    28   11   12 ar
    29   11   18 1
    30   12   13 ar
    31   12   17 1
    32   13   14 ar
    33   14   15 ar
    34   14   16 1
    35   15   39 1
    36   16   33 1
    37   16   34 1
    38   17   35 1
    39   17   36 1
    40   18   37 1
    41   18   38 1
@<TRIPOS>MOLECULE
CHEMBL7170__3
   39    41     0     0     0
SMALL
USER_CHARGES

@<TRIPOS>ATOM
      1 C1         -0.0188    1.5368    0.0105 C.3       1 <0>        -0.1596
      2 C2          1.4767    1.9366   -0.0016 C.3       1 <0>        -0.1529
      3 C3          2.1612    0.6496    0.5251 C.3       1 <0>         0.0719
      4 O1          1.3788   -0.4124   -0.0619 O.3       1 <0>        -0.3749
      5 C4          0.0021   -0.0041    0.0020 C.3       1 <0>         0.0461
      6 C5          3.6127    0.5770    0.0470 C.3       1 <0>        -0.1100
      7 C6          4.2987   -0.6346    0.6814 C.3       1 <0>        -0.0884
      8 C7          5.7227   -0.7682    0.1292 C.3       1 <0>        -0.1158
      9 C8          6.2990   -2.1049    0.5938 C.3       1 <0>        -0.1016
     10 C9          6.1360   -2.2597    2.0816 C.ar      1 <0>         0.2406
     11 C10         5.2530   -1.5027    2.8120 C.ar      1 <0>        -0.2190
     12 C11         5.1648   -1.7233    4.1924 C.ar      1 <0>         0.5305
     13 N1          5.9355   -2.6485    4.7519 N.ar      1 <0>        -0.5774
     14 C12         6.7783   -3.3552    4.0140 C.ar      1 <0>         0.6655
     15 N2          6.8791   -3.1686    2.7082 N.ar      1 <0>        -0.5757
     16 N3          7.5723   -4.3111    4.6233 N.pl3     1 <0>        -0.7931
     17 N4          4.2839   -0.9844    4.9651 N.pl3     1 <0>        -0.7787
     18 C13         4.3829   -0.4429    2.1952 C.3       1 <0>        -0.0730
     19 H1         -0.5053    1.9068    0.9130 H         1 <0>         0.0767
     20 H2         -0.5224    1.9164   -0.8785 H         1 <0>         0.0809
     21 H3          1.8093    2.1678   -1.0136 H         1 <0>         0.0809
     22 H4          1.6602    2.7768    0.6681 H         1 <0>         0.0815
     23 H5          2.1118    0.6064    1.6131 H         1 <0>         0.0678
     24 H6         -0.4558   -0.3860    0.9145 H         1 <0>         0.0590
     25 H7         -0.5361   -0.3772   -0.8693 H         1 <0>         0.0868
     26 H8          3.6333    0.4792   -1.0384 H         1 <0>         0.0849
     27 H9          4.1376    1.4863    0.3398 H         1 <0>         0.0840
     28 H10         3.7294   -1.5367    0.4574 H         1 <0>         0.0925
     29 H11         5.6973   -0.7391   -0.9602 H         1 <0>         0.0978
     30 H12         6.3397    0.0475    0.5060 H         1 <0>         0.0812
     31 H13         5.7777   -2.9175    0.0877 H         1 <0>         0.1203
     32 H14         7.3584   -2.1479    0.3410 H         1 <0>         0.1104
     33 H15         7.5077   -4.4570    5.5801 H         1 <0>         0.4446
     34 H16         8.1934   -4.8350    4.0936 H         1 <0>         0.4301
     35 H17         3.7236   -0.3097    4.5506 H         1 <0>         0.4310
     36 H18         4.2273   -1.1417    5.9205 H         1 <0>         0.4283
     37 H19         4.8034    0.5393    2.4111 H         1 <0>         0.0970
     38 H20         3.3820   -0.5047    2.6224 H         1 <0>         0.0896
     39 H21         7.5065   -3.7042    2.1979 H         1 <0>         0.4404
@<TRIPOS>BOND
     1    1    5 1
     2    1    2 1
     3    1   19 1
     4    1   20 1
     5    2    3 1
     6    2   21 1
     7    2   22 1
     8    3    4 1
     9    3    6 1
    10    3   23 1
    11    4    5 1
    12    5   24 1
    13    5   25 1
    14    6    7 1
    15    6   26 1
    16    6   27 1
    17    7   18 1
    18    7    8 1
    19    7   28 1
    20    8    9 1
    21    8   29 1
    22    8   30 1
    23    9   10 1
    24    9   31 1
    25    9   32 1
    26   10   15 ar
    27   10   11 ar
    28   11   12 ar
    29   11   18 1
    30   12   13 ar
    31   12   17 1
    32   13   14 ar
    33   14   15 ar
    34   14   16 1
    35   15   39 1
    36   16   33 1
    37   16   34 1
    38   17   35 1
    39   17   36 1
    40   18   37 1
    41   18   38 1
@<TRIPOS>MOLECULE
CHEMBL151958
   43    46     0     0     0
SMALL
USER_CHARGES

@<TRIPOS>ATOM
      1 C1          0.6027    1.5059    0.0256 C.3       1 <0>        -0.1687
      2 C2          0.5978   -0.0011    0.0167 C.ar      1 <0>         0.0777
      3 C3          0.7711   -0.7002   -1.1492 C.ar      1 <0>        -0.1764
      4 C4          0.7631   -2.0894   -1.1308 C.ar      1 <0>         0.2405
      5 N1          0.5923   -2.7658   -0.0167 N.ar      1 <0>        -0.4981
      6 C5          0.4186   -2.1439    1.1496 C.ar      1 <0>         0.4088
      7 C6          0.4219   -0.7279    1.1996 C.ar      1 <0>        -0.2410
      8 C7          0.2403   -0.0941    2.4537 C.ar      1 <0>         0.5787
      9 N2          0.0801   -0.8575    3.5253 N.ar      1 <0>        -0.5777
     10 C8          0.0882   -2.1844    3.4357 C.ar      1 <0>         0.6998
     11 N3          0.2432   -2.8239    2.2916 N.ar      1 <0>        -0.5725
     12 N4         -0.0838   -2.9256    4.5891 N.pl3     1 <0>        -0.7763
     13 N5          0.2308    1.2796    2.5567 N.pl3     1 <0>        -0.8020
     14 C9          0.9696    0.0364   -2.4489 C.3       1 <0>         0.1667
     15 N6          2.3622    0.4797   -2.5512 N.pl3     1 <0>        -0.7425
     16 C10         2.7870    1.1862   -3.6727 C.ar      1 <0>         0.2284
     17 C11         1.9009    1.4778   -4.6894 C.ar      1 <0>        -0.2084
     18 C12         2.3189    2.1829   -5.8128 C.ar      1 <0>        -0.0502
     19 C13         3.6076    2.6045   -5.9416 C.ar      1 <0>        -0.1440
     20 C14         4.5428    2.3291   -4.9300 C.ar      1 <0>         0.1648
     21 C15         4.1263    1.6164   -3.7785 C.ar      1 <0>        -0.1433
     22 C16         5.0628    1.3478   -2.7660 C.ar      1 <0>        -0.0546
     23 C17         6.3432    1.7951   -2.9360 C.ar      1 <0>        -0.1829
     24 C18         6.6868    2.4956   -4.0892 C.ar      1 <0>         0.1431
     25 N7          5.8131    2.7335   -5.0378 N.ar      1 <0>        -0.4745
     26 H1          1.5940    1.8644    0.3030 H         1 <0>         0.1061
     27 H2          0.3472    1.8760   -0.9673 H         1 <0>         0.1071
     28 H3         -0.1295    1.8674    0.7476 H         1 <0>         0.1068
     29 H4          0.9004   -2.6280   -2.0567 H         1 <0>         0.1950
     30 H5         -0.2071   -2.4769    5.4402 H         1 <0>         0.4486
     31 H6         -0.0814   -3.8947    4.5477 H         1 <0>         0.4342
     32 H7         -0.4109    1.7180    3.1371 H         1 <0>         0.4314
     33 H8          0.8658    1.8084    2.0488 H         1 <0>         0.4361
     34 H9          0.7374   -0.6273   -3.2818 H         1 <0>         0.0886
     35 H10         0.3092    0.9030   -2.4798 H         1 <0>         0.0885
     36 H11         2.9882    0.2808   -1.8374 H         1 <0>         0.3981
     37 H12         0.8732    1.1550   -4.6123 H         1 <0>         0.1257
     38 H13         1.6090    2.3999   -6.5973 H         1 <0>         0.1317
     39 H14         3.9110    3.1508   -6.8225 H         1 <0>         0.1352
     40 H15         4.7786    0.8032   -1.8777 H         1 <0>         0.1249
     41 H16         7.0874    1.6056   -2.1765 H         1 <0>         0.1378
     42 H17         7.7022    2.8431   -4.2104 H         1 <0>         0.1623
     43 H18         0.2412   -3.7938    2.2786 H         1 <0>         0.4465
@<TRIPOS>BOND
     1    1    2 1
     2    1   26 1
     3    1   27 1
     4    1   28 1
     5    2    7 ar
     6    2    3 ar
     7    3    4 ar
     8    3   14 1
     9    4    5 ar
    10    4   29 1
    11    5    6 ar
    12    6   11 ar
    13    6    7 ar
    14    7    8 ar
    15    8    9 ar
    16    8   13 1
    17    9   10 ar
    18   10   11 ar
    19   10   12 1
    20   11   43 1
    21   12   30 1
    22   12   31 1
    23   13   32 1
    24   13   33 1
    25   14   15 1
    26   14   34 1
    27   14   35 1
    28   15   16 1
    29   15   36 1
    30   16   21 ar
    31   16   17 ar
    32   17   18 ar
    33   17   37 1
    34   18   19 ar
    35   18   38 1
    36   19   20 ar
    37   19   39 1
    38   20   25 ar
    39   20   21 ar
    40   21   22 ar
    41   22   23 ar
    42   22   40 1
    43   23   24 ar
    44   23   41 1
    45   24   25 ar
    46   24   42 1
@<TRIPOS>MOLECULE
CHEMBL151958__1
   44    47     0     0     0
SMALL
USER_CHARGES

@<TRIPOS>ATOM
      1 C1          0.6027    1.5059    0.0256 C.3       1 <0>        -0.1702
      2 C2          0.5978   -0.0011    0.0167 C.ar      1 <0>         0.0810
      3 C3          0.7711   -0.7002   -1.1492 C.ar      1 <0>        -0.1929
      4 C4          0.7631   -2.0894   -1.1308 C.ar      1 <0>         0.2430
      5 N1          0.5923   -2.7658   -0.0167 N.ar      1 <0>        -0.4955
      6 C5          0.4186   -2.1439    1.1496 C.ar      1 <0>         0.4185
      7 C6          0.4219   -0.7279    1.1996 C.ar      1 <0>        -0.2422
      8 C7          0.2403   -0.0941    2.4537 C.ar      1 <0>         0.5776
      9 N2          0.0801   -0.8575    3.5253 N.ar      1 <0>        -0.5733
     10 C8          0.0882   -2.1844    3.4357 C.ar      1 <0>         0.7015
     11 N3          0.2432   -2.8239    2.2916 N.ar      1 <0>        -0.5740
     12 N4         -0.0838   -2.9256    4.5891 N.pl3     1 <0>        -0.7693
     13 N5          0.2308    1.2796    2.5567 N.pl3     1 <0>        -0.8022
     14 C9          0.9696    0.0364   -2.4489 C.3       1 <0>         0.1597
     15 N6          2.3622    0.4797   -2.5512 N.pl3     1 <0>        -0.7233
     16 C10         2.7870    1.1862   -3.6727 C.ar      1 <0>         0.2695
     17 C11         1.9009    1.4778   -4.6894 C.ar      1 <0>        -0.1972
     18 C12         2.3189    2.1829   -5.8128 C.ar      1 <0>         0.0218
     19 C13         3.6076    2.6045   -5.9416 C.ar      1 <0>        -0.1950
     20 C14         4.5428    2.3291   -4.9300 C.ar      1 <0>         0.1746
     21 C15         4.1263    1.6164   -3.7785 C.ar      1 <0>        -0.1358
     22 C16         5.0628    1.3478   -2.7660 C.ar      1 <0>         0.0505
     23 C17         6.3432    1.7951   -2.9360 C.ar      1 <0>        -0.1859
     24 C18         6.6868    2.4956   -4.0892 C.ar      1 <0>         0.2213
     25 N7          5.8131    2.7335   -5.0378 N.ar      1 <0>        -0.4636
     26 H1          1.5940    1.8644    0.3030 H         1 <0>         0.1047
     27 H2          0.3472    1.8760   -0.9673 H         1 <0>         0.1041
     28 H3         -0.1295    1.8674    0.7476 H         1 <0>         0.1114
     29 H4          0.9004   -2.6280   -2.0567 H         1 <0>         0.1949
     30 H5         -0.2071   -2.4769    5.4402 H         1 <0>         0.4510
     31 H6         -0.0814   -3.8947    4.5477 H         1 <0>         0.4365
     32 H7         -0.4109    1.7180    3.1371 H         1 <0>         0.4337
     33 H8          0.8658    1.8084    2.0488 H         1 <0>         0.4342
     34 H9          0.7374   -0.6273   -3.2818 H         1 <0>         0.1008
     35 H10         0.3092    0.9030   -2.4798 H         1 <0>         0.0999
     36 H11         2.9882    0.2808   -1.8374 H         1 <0>         0.4053
     37 H12         0.8732    1.1550   -4.6123 H         1 <0>         0.1505
     38 H13         1.6090    2.3999   -6.5973 H         1 <0>         0.1577
     39 H14         3.9110    3.1508   -6.8225 H         1 <0>         0.1559
     40 H15         4.7786    0.8032   -1.8777 H         1 <0>         0.1612
     41 H16         7.0874    1.6056   -2.1765 H         1 <0>         0.1851
     42 H17         7.7022    2.8431   -4.2104 H         1 <0>         0.2132
     43 H18         0.2412   -3.7938    2.2786 H         1 <0>         0.4489
     44 H19         6.0904    3.2241   -5.8272 H         1 <0>         0.4521
@<TRIPOS>BOND
     1    1    2 1
     2    1   26 1
     3    1   27 1
     4    1   28 1
     5    2    7 ar
     6    2    3 ar
     7    3    4 ar
     8    3   14 1
     9    4    5 ar
    10    4   29 1
    11    5    6 ar
    12    6   11 ar
    13    6    7 ar
    14    7    8 ar
    15    8    9 ar
    16    8   13 1
    17    9   10 ar
    18   10   11 ar
    19   10   12 1
    20   11   43 1
    21   12   30 1
    22   12   31 1
    23   13   32 1
    24   13   33 1
    25   14   15 1
    26   14   34 1
    27   14   35 1
    28   15   16 1
    29   15   36 1
    30   16   21 ar
    31   16   17 ar
    32   17   18 ar
    33   17   37 1
    34   18   19 ar
    35   18   38 1
    36   19   20 ar
    37   19   39 1
    38   20   25 ar
    39   20   21 ar
    40   21   22 ar
    41   22   23 ar
    42   22   40 1
    43   23   24 ar
    44   23   41 1
    45   24   25 ar
    46   24   42 1
    47   25   44 1
@<TRIPOS>MOLECULE
CHEMBL151958__2
   42    45     0     0     0
SMALL
USER_CHARGES

@<TRIPOS>ATOM
      1 C1          0.6027    1.5059    0.0256 C.3       1 <0>        -0.1551
      2 C2          0.5978   -0.0011    0.0167 C.ar      1 <0>         0.0610
      3 C3          0.7711   -0.7002   -1.1492 C.ar      1 <0>        -0.2206
      4 C4          0.7631   -2.0894   -1.1308 C.ar      1 <0>         0.2104
      5 N1          0.5923   -2.7658   -0.0167 N.ar      1 <0>        -0.4886
      6 C5          0.4186   -2.1439    1.1496 C.ar      1 <0>         0.4174
      7 C6          0.4219   -0.7279    1.1996 C.ar      1 <0>        -0.2829
      8 C7          0.2403   -0.0941    2.4537 C.ar      1 <0>         0.5250
      9 N2          0.0801   -0.8575    3.5253 N.ar      1 <0>        -0.6166
     10 C8          0.0882   -2.1844    3.4357 C.ar      1 <0>         0.6260
     11 N3          0.2432   -2.8239    2.2916 N.ar      1 <0>        -0.5912
     12 N4         -0.0838   -2.9256    4.5891 N.pl3     1 <0>        -0.8095
     13 N5          0.2308    1.2796    2.5567 N.pl3     1 <0>        -0.8448
     14 C9          0.9696    0.0364   -2.4489 C.3       1 <0>         0.1763
     15 N6          2.3622    0.4797   -2.5512 N.pl3     1 <0>        -0.7343
     16 C10         2.7870    1.1862   -3.6727 C.ar      1 <0>         0.2408
     17 C11         1.9009    1.4778   -4.6894 C.ar      1 <0>        -0.2202
     18 C12         2.3189    2.1829   -5.8128 C.ar      1 <0>        -0.0432
     19 C13         3.6076    2.6045   -5.9416 C.ar      1 <0>        -0.1594
     20 C14         4.5428    2.3291   -4.9300 C.ar      1 <0>         0.1670
     21 C15         4.1263    1.6164   -3.7785 C.ar      1 <0>        -0.1477
     22 C16         5.0628    1.3478   -2.7660 C.ar      1 <0>        -0.0475
     23 C17         6.3432    1.7951   -2.9360 C.ar      1 <0>        -0.1907
     24 C18         6.6868    2.4956   -4.0892 C.ar      1 <0>         0.1407
     25 N7          5.8131    2.7335   -5.0378 N.ar      1 <0>        -0.4804
     26 H1          1.5940    1.8644    0.3030 H         1 <0>         0.0863
     27 H2          0.3472    1.8760   -0.9673 H         1 <0>         0.0862
     28 H3         -0.1295    1.8674    0.7476 H         1 <0>         0.1005
     29 H4          0.9004   -2.6280   -2.0567 H         1 <0>         0.1681
     30 H5         -0.2071   -2.4769    5.4402 H         1 <0>         0.4167
     31 H6         -0.0814   -3.8947    4.5477 H         1 <0>         0.4193
     32 H7         -0.4109    1.7180    3.1371 H         1 <0>         0.4113
     33 H8          0.8658    1.8084    2.0488 H         1 <0>         0.4184
     34 H9          0.7374   -0.6273   -3.2818 H         1 <0>         0.0777
     35 H10         0.3092    0.9030   -2.4798 H         1 <0>         0.0773
     36 H11         2.9882    0.2808   -1.8374 H         1 <0>         0.3988
     37 H12         0.8732    1.1550   -4.6123 H         1 <0>         0.1260
     38 H13         1.6090    2.3999   -6.5973 H         1 <0>         0.1281
     39 H14         3.9110    3.1508   -6.8225 H         1 <0>         0.1309
     40 H15         4.7786    0.8032   -1.8777 H         1 <0>         0.1277
     41 H16         7.0874    1.6056   -2.1765 H         1 <0>         0.1359
     42 H17         7.7022    2.8431   -4.2104 H         1 <0>         0.1588
@<TRIPOS>BOND
     1    1    2 1
     2    1   26 1
     3    1   27 1
     4    1   28 1
     5    2    7 ar
     6    2    3 ar
     7    3    4 ar
     8    3   14 1
     9    4    5 ar
    10    4   29 1
    11    5    6 ar
    12    6   11 ar
    13    6    7 ar
    14    7    8 ar
    15    8    9 ar
    16    8   13 1
    17    9   10 ar
    18   10   11 ar
    19   10   12 1
    20   12   30 1
    21   12   31 1
    22   13   32 1
    23   13   33 1
    24   14   15 1
    25   14   34 1
    26   14   35 1
    27   15   16 1
    28   15   36 1
    29   16   21 ar
    30   16   17 ar
    31   17   18 ar
    32   17   37 1
    33   18   19 ar
    34   18   38 1
    35   19   20 ar
    36   19   39 1
    37   20   25 ar
    38   20   21 ar
    39   21   22 ar
    40   22   23 ar
    41   22   40 1
    42   23   24 ar
    43   23   41 1
    44   24   25 ar
    45   24   42 1
@<TRIPOS>MOLECULE
CHEMBL151958__3
   43    46     0     0     0
SMALL
USER_CHARGES

@<TRIPOS>ATOM
      1 C1          0.6027    1.5059    0.0256 C.3       1 <0>        -0.1571
      2 C2          0.5978   -0.0011    0.0167 C.ar      1 <0>         0.0666
      3 C3          0.7711   -0.7002   -1.1492 C.ar      1 <0>        -0.2386
      4 C4          0.7631   -2.0894   -1.1308 C.ar      1 <0>         0.2113
      5 N1          0.5923   -2.7658   -0.0167 N.ar      1 <0>        -0.4841
      6 C5          0.4186   -2.1439    1.1496 C.ar      1 <0>         0.4239
      7 C6          0.4219   -0.7279    1.1996 C.ar      1 <0>        -0.2862
      8 C7          0.2403   -0.0941    2.4537 C.ar      1 <0>         0.5256
      9 N2          0.0801   -0.8575    3.5253 N.ar      1 <0>        -0.6126
     10 C8          0.0882   -2.1844    3.4357 C.ar      1 <0>         0.6319
     11 N3          0.2432   -2.8239    2.2916 N.ar      1 <0>        -0.5902
     12 N4         -0.0838   -2.9256    4.5891 N.pl3     1 <0>        -0.8036
     13 N5          0.2308    1.2796    2.5567 N.pl3     1 <0>        -0.8444
     14 C9          0.9696    0.0364   -2.4489 C.3       1 <0>         0.1676
     15 N6          2.3622    0.4797   -2.5512 N.pl3     1 <0>        -0.7091
     16 C10         2.7870    1.1862   -3.6727 C.ar      1 <0>         0.2796
     17 C11         1.9009    1.4778   -4.6894 C.ar      1 <0>        -0.2071
     18 C12         2.3189    2.1829   -5.8128 C.ar      1 <0>         0.0260
     19 C13         3.6076    2.6045   -5.9416 C.ar      1 <0>        -0.2091
     20 C14         4.5428    2.3291   -4.9300 C.ar      1 <0>         0.1768
     21 C15         4.1263    1.6164   -3.7785 C.ar      1 <0>        -0.1408
     22 C16         5.0628    1.3478   -2.7660 C.ar      1 <0>         0.0567
     23 C17         6.3432    1.7951   -2.9360 C.ar      1 <0>        -0.1923
     24 C18         6.6868    2.4956   -4.0892 C.ar      1 <0>         0.2157
     25 N7          5.8131    2.7335   -5.0378 N.ar      1 <0>        -0.4682
     26 H1          1.5940    1.8644    0.3030 H         1 <0>         0.0853
     27 H2          0.3472    1.8760   -0.9673 H         1 <0>         0.0832
     28 H3         -0.1295    1.8674    0.7476 H         1 <0>         0.1053
     29 H4          0.9004   -2.6280   -2.0567 H         1 <0>         0.1678
     30 H5         -0.2071   -2.4769    5.4402 H         1 <0>         0.4195
     31 H6         -0.0814   -3.8947    4.5477 H         1 <0>         0.4220
     32 H7         -0.4109    1.7180    3.1371 H         1 <0>         0.4140
     33 H8          0.8658    1.8084    2.0488 H         1 <0>         0.4166
     34 H9          0.7374   -0.6273   -3.2818 H         1 <0>         0.0911
     35 H10         0.3092    0.9030   -2.4798 H         1 <0>         0.0898
     36 H11         2.9882    0.2808   -1.8374 H         1 <0>         0.4064
     37 H12         0.8732    1.1550   -4.6123 H         1 <0>         0.1505
     38 H13         1.6090    2.3999   -6.5973 H         1 <0>         0.1540
     39 H14         3.9110    3.1508   -6.8225 H         1 <0>         0.1515
     40 H15         4.7786    0.8032   -1.8777 H         1 <0>         0.1633
     41 H16         7.0874    1.6056   -2.1765 H         1 <0>         0.1831
     42 H17         7.7022    2.8431   -4.2104 H         1 <0>         0.2095
     43 H18         6.0904    3.2241   -5.8272 H         1 <0>         0.4487
@<TRIPOS>BOND
     1    1    2 1
     2    1   26 1
     3    1   27 1
     4    1   28 1
     5    2    7 ar
     6    2    3 ar
     7    3    4 ar
     8    3   14 1
     9    4    5 ar
    10    4   29 1
    11    5    6 ar
    12    6   11 ar
    13    6    7 ar
    14    7    8 ar
    15    8    9 ar
    16    8   13 1
    17    9   10 ar
    18   10   11 ar
    19   10   12 1
    20   12   30 1
    21   12   31 1
    22   13   32 1
    23   13   33 1
    24   14   15 1
    25   14   34 1
    26   14   35 1
    27   15   16 1
    28   15   36 1
    29   16   21 ar
    30   16   17 ar
    31   17   18 ar
    32   17   37 1
    33   18   19 ar
    34   18   38 1
    35   19   20 ar
    36   19   39 1
    37   20   25 ar
    38   20   21 ar
    39   21   22 ar
    40   22   23 ar
    41   22   40 1
    42   23   24 ar
    43   23   41 1
    44   24   25 ar
    45   24   42 1
    46   25   43 1
@<TRIPOS>MOLECULE
CHEMBL168069
   57    59     0     0     0
SMALL
USER_CHARGES

@<TRIPOS>ATOM
      1 C1         -0.0187    1.5258    0.0104 C.3       1 <0>        -0.1371
      2 C2          0.0021   -0.0041    0.0020 C.3       1 <0>         0.0936
      3 C3          0.7421   -0.5109    1.2415 C.3       1 <0>        -0.0677
      4 C4          0.0259   -0.0175    2.5003 C.3       1 <0>        -0.1836
      5 C5          0.7548   -0.5167    3.7212 C.2       1 <0>         0.4915
      6 O1          1.7544   -1.2035    3.5961 O.co2     1 <0>        -0.7167
      7 O2          0.3449   -0.2338    4.8341 O.co2     1 <0>        -0.7173
      8 C6         -1.4117   -0.5257    0.0127 C.2       1 <0>         0.5076
      9 O3         -1.8097   -1.2271   -0.9017 O.co2     1 <0>        -0.6913
     10 O4         -2.1576   -0.2463    0.9358 O.co2     1 <0>        -0.6805
     11 N1          0.6878   -0.4765   -1.2033 N.am      1 <0>        -0.6866
     12 C7          0.2113   -0.1507   -2.4212 C.2       1 <0>         0.5915
     13 O5         -0.7886    0.5361   -2.5196 O.2       1 <0>        -0.5041
     14 C8          0.8974   -0.6234   -3.6272 C.2       1 <0>        -0.1805
     15 C9          0.5793   -0.3996   -4.9581 C.2       1 <0>        -0.1086
     16 C10         1.4193   -0.9797   -5.8783 C.2       1 <0>        -0.1614
     17 C11         2.4731   -1.7114   -5.4394 C.2       1 <0>        -0.2430
     18 S1          2.3627   -1.6293   -3.7650 S.3       1 <0>         0.1921
     19 C12         3.5103   -2.4285   -6.2648 C.3       1 <0>        -0.0277
     20 C13         4.6831   -1.4857   -6.5412 C.3       1 <0>        -0.1126
     21 C14         5.7361   -2.2136   -7.3792 C.3       1 <0>        -0.1049
     22 C15         6.9567   -1.3109   -7.5653 C.3       1 <0>        -0.0587
     23 C16         7.9003   -1.9090   -8.5712 C.ar      1 <0>        -0.3049
     24 C17         9.2339   -1.5062   -8.5932 C.ar      1 <0>         0.5403
     25 N2         10.0560   -2.0430   -9.4919 N.ar      1 <0>        -0.5914
     26 C18         9.6199   -2.9470  -10.3563 C.ar      1 <0>         0.6794
     27 N3          8.3591   -3.3527  -10.3628 N.ar      1 <0>        -0.6011
     28 C19         7.4820   -2.8595   -9.4899 C.ar      1 <0>         0.5021
     29 N4          6.1682   -3.3037   -9.5069 N.pl3     1 <0>        -0.6958
     30 C20         5.1533   -2.5496   -8.7581 C.3       1 <0>         0.1121
     31 N5         10.5045   -3.4810  -11.2768 N.pl3     1 <0>        -0.7993
     32 N6          9.6977   -0.5600   -7.6926 N.pl3     1 <0>        -0.7865
     33 H1          1.0039    1.9031    0.0027 H         1 <0>         0.0333
     34 H2         -0.5459    1.8868   -0.8726 H         1 <0>         0.0600
     35 H3         -0.5289    1.8773    0.9072 H         1 <0>         0.0712
     36 H4          0.7568   -1.6008    1.2356 H         1 <0>         0.0517
     37 H5          1.7647   -0.1336    1.2338 H         1 <0>         0.0446
     38 H6          0.0111    1.0724    2.5063 H         1 <0>         0.0504
     39 H7         -0.9967   -0.3948    2.5081 H         1 <0>         0.1036
     40 H8          1.4848   -1.0239   -1.1249 H         1 <0>         0.3815
     41 H9         -0.2744    0.1926   -5.2529 H         1 <0>         0.1470
     42 H10         1.2422   -0.8548   -6.9363 H         1 <0>         0.1256
     43 H11         3.8673   -3.3026   -5.7202 H         1 <0>         0.0790
     44 H12         3.0678   -2.7446   -7.2094 H         1 <0>         0.0782
     45 H13         4.3261   -0.6116   -7.0858 H         1 <0>         0.0778
     46 H14         5.1256   -1.1695   -5.5965 H         1 <0>         0.0839
     47 H15         6.0330   -3.1329   -6.8743 H         1 <0>         0.0926
     48 H16         6.6309   -0.3311   -7.9145 H         1 <0>         0.0917
     49 H17         7.4709   -1.1982   -6.6108 H         1 <0>         0.0921
     50 H18         5.9232   -4.0990  -10.0052 H         1 <0>         0.4208
     51 H19         4.2552   -3.1561   -8.6410 H         1 <0>         0.1155
     52 H20         4.9110   -1.6296   -9.2901 H         1 <0>         0.0918
     53 H21        11.4306   -3.1926  -11.2833 H         1 <0>         0.4431
     54 H22        10.1985   -4.1438  -11.9155 H         1 <0>         0.4263
     55 H23         9.0924   -0.1732   -7.0408 H         1 <0>         0.4309
     56 H24        10.6276   -0.2847   -7.7142 H         1 <0>         0.4246
     57 H25         8.0716   -4.0159  -11.0095 H         1 <0>         0.4341
@<TRIPOS>BOND
     1    1    2 1
     2    1   33 1
     3    1   34 1
     4    1   35 1
     5    2    3 1
     6    2    8 1
     7    2   11 1
     8    3    4 1
     9    3   36 1
    10    3   37 1
    11    4    5 1
    12    4   38 1
    13    4   39 1
    14    5    6 2
    15    5    7 1
    16    8    9 2
    17    8   10 1
    18   11   12 am
    19   11   40 1
    20   12   13 2
    21   12   14 1
    22   14   18 1
    23   14   15 2
    24   15   16 1
    25   15   41 1
    26   16   17 2
    27   16   42 1
    28   17   18 1
    29   17   19 1
    30   19   20 1
    31   19   43 1
    32   19   44 1
    33   20   21 1
    34   20   45 1
    35   20   46 1
    36   21   30 1
    37   21   22 1
    38   21   47 1
    39   22   23 1
    40   22   48 1
    41   22   49 1
    42   23   28 ar
    43   23   24 ar
    44   24   25 ar
    45   24   32 1
    46   25   26 ar
    47   26   27 ar
    48   26   31 1
    49   27   28 ar
    50   27   57 1
    51   28   29 1
    52   29   30 1
    53   29   50 1
    54   30   51 1
    55   30   52 1
    56   31   53 1
    57   31   54 1
    58   32   55 1
    59   32   56 1
@<TRIPOS>MOLECULE
CHEMBL168069__1
   56    58     0     0     0
SMALL
USER_CHARGES

@<TRIPOS>ATOM
      1 C1         -0.0187    1.5258    0.0104 C.3       1 <0>        -0.1369
      2 C2          0.0021   -0.0041    0.0020 C.3       1 <0>         0.0944
      3 C3          0.7421   -0.5109    1.2415 C.3       1 <0>        -0.0684
      4 C4          0.0259   -0.0175    2.5003 C.3       1 <0>        -0.1828
      5 C5          0.7548   -0.5167    3.7212 C.2       1 <0>         0.4915
      6 O1          1.7544   -1.2035    3.5961 O.co2     1 <0>        -0.7152
      7 O2          0.3449   -0.2338    4.8341 O.co2     1 <0>        -0.7201
      8 C6         -1.4117   -0.5257    0.0127 C.2       1 <0>         0.5081
      9 O3         -1.8097   -1.2271   -0.9017 O.co2     1 <0>        -0.6899
     10 O4         -2.1576   -0.2463    0.9358 O.co2     1 <0>        -0.6844
     11 N1          0.6878   -0.4765   -1.2033 N.am      1 <0>        -0.6890
     12 C7          0.2113   -0.1507   -2.4212 C.2       1 <0>         0.5963
     13 O5         -0.7886    0.5361   -2.5196 O.2       1 <0>        -0.5095
     14 C8          0.8974   -0.6234   -3.6272 C.2       1 <0>        -0.1950
     15 C9          0.5793   -0.3996   -4.9581 C.2       1 <0>        -0.1022
     16 C10         1.4193   -0.9797   -5.8783 C.2       1 <0>        -0.1709
     17 C11         2.4731   -1.7114   -5.4394 C.2       1 <0>        -0.2238
     18 S1          2.3627   -1.6293   -3.7650 S.3       1 <0>         0.1891
     19 C12         3.5103   -2.4285   -6.2648 C.3       1 <0>        -0.0312
     20 C13         4.6831   -1.4857   -6.5412 C.3       1 <0>        -0.1089
     21 C14         5.7361   -2.2136   -7.3792 C.3       1 <0>        -0.1018
     22 C15         6.9567   -1.3109   -7.5653 C.3       1 <0>        -0.0415
     23 C16         7.9003   -1.9090   -8.5712 C.ar      1 <0>        -0.3606
     24 C17         9.2339   -1.5062   -8.5932 C.ar      1 <0>         0.4980
     25 N2         10.0560   -2.0430   -9.4919 N.ar      1 <0>        -0.6558
     26 C18         9.6199   -2.9470  -10.3563 C.ar      1 <0>         0.6287
     27 N3          8.3591   -3.3527  -10.3628 N.ar      1 <0>        -0.6537
     28 C19         7.4820   -2.8595   -9.4899 C.ar      1 <0>         0.4986
     29 N4          6.1682   -3.3037   -9.5069 N.pl3     1 <0>        -0.7159
     30 C20         5.1533   -2.5496   -8.7581 C.3       1 <0>         0.1273
     31 N5         10.5045   -3.4810  -11.2768 N.pl3     1 <0>        -0.8256
     32 N6          9.6977   -0.5600   -7.6926 N.pl3     1 <0>        -0.8368
     33 H1          1.0039    1.9031    0.0027 H         1 <0>         0.0333
     34 H2         -0.5459    1.8868   -0.8726 H         1 <0>         0.0602
     35 H3         -0.5289    1.8773    0.9072 H         1 <0>         0.0693
     36 H4          0.7568   -1.6008    1.2356 H         1 <0>         0.0517
     37 H5          1.7647   -0.1336    1.2338 H         1 <0>         0.0449
     38 H6          0.0111    1.0724    2.5063 H         1 <0>         0.0499
     39 H7         -0.9967   -0.3948    2.5081 H         1 <0>         0.1032
     40 H8          1.4848   -1.0239   -1.1249 H         1 <0>         0.3824
     41 H9         -0.2744    0.1926   -5.2529 H         1 <0>         0.1446
     42 H10         1.2422   -0.8548   -6.9363 H         1 <0>         0.1267
     43 H11         3.8673   -3.3026   -5.7202 H         1 <0>         0.0779
     44 H12         3.0678   -2.7446   -7.2094 H         1 <0>         0.0808
     45 H13         4.3261   -0.6116   -7.0858 H         1 <0>         0.0713
     46 H14         5.1256   -1.1695   -5.5965 H         1 <0>         0.0748
     47 H15         6.0330   -3.1329   -6.8743 H         1 <0>         0.0817
     48 H16         6.6309   -0.3311   -7.9145 H         1 <0>         0.0652
     49 H17         7.4709   -1.1982   -6.6108 H         1 <0>         0.0675
     50 H18         5.9232   -4.0990  -10.0052 H         1 <0>         0.4073
     51 H19         4.2552   -3.1561   -8.6410 H         1 <0>         0.0904
     52 H20         4.9110   -1.6296   -9.2901 H         1 <0>         0.0659
     53 H21        11.4306   -3.1926  -11.2833 H         1 <0>         0.4110
     54 H22        10.1985   -4.1438  -11.9155 H         1 <0>         0.4114
     55 H23         9.0924   -0.1732   -7.0408 H         1 <0>         0.4120
     56 H24        10.6276   -0.2847   -7.7142 H         1 <0>         0.4042
@<TRIPOS>BOND
     1    1    2 1
     2    1   33 1
     3    1   34 1
     4    1   35 1
     5    2    3 1
     6    2    8 1
     7    2   11 1
     8    3    4 1
     9    3   36 1
    10    3   37 1
    11    4    5 1
    12    4   38 1
    13    4   39 1
    14    5    6 2
    15    5    7 1
    16    8    9 2
    17    8   10 1
    18   11   12 am
    19   11   40 1
    20   12   13 2
    21   12   14 1
    22   14   18 1
    23   14   15 2
    24   15   16 1
    25   15   41 1
    26   16   17 2
    27   16   42 1
    28   17   18 1
    29   17   19 1
    30   19   20 1
    31   19   43 1
    32   19   44 1
    33   20   21 1
    34   20   45 1
    35   20   46 1
    36   21   30 1
    37   21   22 1
    38   21   47 1
    39   22   23 1
    40   22   48 1
    41   22   49 1
    42   23   28 ar
    43   23   24 ar
    44   24   25 ar
    45   24   32 1
    46   25   26 ar
    47   26   27 ar
    48   26   31 1
    49   27   28 ar
    50   28   29 1
    51   29   30 1
    52   29   50 1
    53   30   51 1
    54   30   52 1
    55   31   53 1
    56   31   54 1
    57   32   55 1
    58   32   56 1
@<TRIPOS>MOLECULE
CHEMBL168069__2
   57    59     0     0     0
SMALL
USER_CHARGES

@<TRIPOS>ATOM
      1 C1         -0.0187    1.5258    0.0104 C.3       1 <0>        -0.1373
      2 C2          0.0021   -0.0041    0.0020 C.3       1 <0>         0.0938
      3 C3          0.7421   -0.5109    1.2415 C.3       1 <0>        -0.0677
      4 C4          0.0259   -0.0175    2.5003 C.3       1 <0>        -0.1837
      5 C5          0.7548   -0.5167    3.7212 C.2       1 <0>         0.4915
      6 O1          1.7544   -1.2035    3.5961 O.co2     1 <0>        -0.7170
      7 O2          0.3449   -0.2338    4.8341 O.co2     1 <0>        -0.7171
      8 C6         -1.4117   -0.5257    0.0127 C.2       1 <0>         0.5074
      9 O3         -1.8097   -1.2271   -0.9017 O.co2     1 <0>        -0.6912
     10 O4         -2.1576   -0.2463    0.9358 O.co2     1 <0>        -0.6804
     11 N1          0.6878   -0.4765   -1.2033 N.am      1 <0>        -0.6867
     12 C7          0.2113   -0.1507   -2.4212 C.2       1 <0>         0.5915
     13 O5         -0.7886    0.5361   -2.5196 O.2       1 <0>        -0.5036
     14 C8          0.8974   -0.6234   -3.6272 C.2       1 <0>        -0.1797
     15 C9          0.5793   -0.3996   -4.9581 C.2       1 <0>        -0.1078
     16 C10         1.4193   -0.9797   -5.8783 C.2       1 <0>        -0.1604
     17 C11         2.4731   -1.7114   -5.4394 C.2       1 <0>        -0.2425
     18 S1          2.3627   -1.6293   -3.7650 S.3       1 <0>         0.1876
     19 C12         3.5103   -2.4285   -6.2648 C.3       1 <0>        -0.0274
     20 C13         4.6831   -1.4857   -6.5412 C.3       1 <0>        -0.1129
     21 C14         5.7361   -2.2136   -7.3792 C.3       1 <0>        -0.1036
     22 C15         6.8583   -1.2422   -7.7486 C.3       1 <0>        -0.0583
     23 C16         8.0088   -1.9847   -8.3691 C.ar      1 <0>        -0.3061
     24 C17         8.9343   -1.2971   -9.1514 C.ar      1 <0>         0.5400
     25 N2          9.9487   -1.9684   -9.6917 N.ar      1 <0>        -0.5920
     26 C18        10.0834   -3.2710   -9.4927 C.ar      1 <0>         0.6797
     27 N3          9.2214   -3.9555   -8.7560 N.ar      1 <0>        -0.6009
     28 C19         8.1819   -3.3482   -8.1862 C.ar      1 <0>         0.5032
     29 N4          7.2858   -4.0839   -7.4250 N.pl3     1 <0>        -0.6942
     30 C20         6.3302   -3.3709   -6.5658 C.3       1 <0>         0.1094
     31 N5         11.1523   -3.9339  -10.0698 N.pl3     1 <0>        -0.7991
     32 N6          8.8003    0.0660   -9.3642 N.pl3     1 <0>        -0.7881
     33 H1          1.0039    1.9031    0.0027 H         1 <0>         0.0332
     34 H2         -0.5459    1.8868   -0.8726 H         1 <0>         0.0601
     35 H3         -0.5289    1.8773    0.9072 H         1 <0>         0.0712
     36 H4          0.7568   -1.6008    1.2356 H         1 <0>         0.0516
     37 H5          1.7647   -0.1336    1.2338 H         1 <0>         0.0445
     38 H6          0.0111    1.0724    2.5063 H         1 <0>         0.0505
     39 H7         -0.9967   -0.3948    2.5081 H         1 <0>         0.1037
     40 H8          1.4848   -1.0239   -1.1249 H         1 <0>         0.3812
     41 H9         -0.2744    0.1926   -5.2529 H         1 <0>         0.1473
     42 H10         1.2422   -0.8548   -6.9363 H         1 <0>         0.1265
     43 H11         3.8673   -3.3026   -5.7202 H         1 <0>         0.0753
     44 H12         3.0678   -2.7446   -7.2094 H         1 <0>         0.0816
     45 H13         4.3261   -0.6116   -7.0858 H         1 <0>         0.0825
     46 H14         5.1256   -1.1695   -5.5965 H         1 <0>         0.0792
     47 H15         5.2749   -2.6039   -8.2864 H         1 <0>         0.0908
     48 H16         6.4794   -0.5062   -8.4578 H         1 <0>         0.0900
     49 H17         7.2022   -0.7298   -6.8501 H         1 <0>         0.0929
     50 H18         7.2900   -5.0533   -7.4590 H         1 <0>         0.4213
     51 H19         6.8445   -2.9790   -5.6883 H         1 <0>         0.0949
     52 H20         5.5357   -4.0497   -6.2557 H         1 <0>         0.1167
     53 H21        11.7908   -3.4448  -10.6120 H         1 <0>         0.4430
     54 H22        11.2629   -4.8877   -9.9323 H         1 <0>         0.4266
     55 H23         8.0581    0.5482   -8.9673 H         1 <0>         0.4301
     56 H24         9.4487    0.5377   -9.9101 H         1 <0>         0.4240
     57 H25         9.3487   -4.9088   -8.6299 H         1 <0>         0.4346
@<TRIPOS>BOND
     1    1    2 1
     2    1   33 1
     3    1   34 1
     4    1   35 1
     5    2    3 1
     6    2    8 1
     7    2   11 1
     8    3    4 1
     9    3   36 1
    10    3   37 1
    11    4    5 1
    12    4   38 1
    13    4   39 1
    14    5    6 2
    15    5    7 1
    16    8    9 2
    17    8   10 1
    18   11   12 am
    19   11   40 1
    20   12   13 2
    21   12   14 1
    22   14   18 1
    23   14   15 2
    24   15   16 1
    25   15   41 1
    26   16   17 2
    27   16   42 1
    28   17   18 1
    29   17   19 1
    30   19   20 1
    31   19   43 1
    32   19   44 1
    33   20   21 1
    34   20   45 1
    35   20   46 1
    36   21   30 1
    37   21   22 1
    38   21   47 1
    39   22   23 1
    40   22   48 1
    41   22   49 1
    42   23   28 ar
    43   23   24 ar
    44   24   25 ar
    45   24   32 1
    46   25   26 ar
    47   26   27 ar
    48   26   31 1
    49   27   28 ar
    50   27   57 1
    51   28   29 1
    52   29   30 1
    53   29   50 1
    54   30   51 1
    55   30   52 1
    56   31   53 1
    57   31   54 1
    58   32   55 1
    59   32   56 1
@<TRIPOS>MOLECULE
CHEMBL168069__3
   56    58     0     0     0
SMALL
USER_CHARGES

@<TRIPOS>ATOM
      1 C1         -0.0187    1.5258    0.0104 C.3       1 <0>        -0.1370
      2 C2          0.0021   -0.0041    0.0020 C.3       1 <0>         0.0946
      3 C3          0.7421   -0.5109    1.2415 C.3       1 <0>        -0.0686
      4 C4          0.0259   -0.0175    2.5003 C.3       1 <0>        -0.1827
      5 C5          0.7548   -0.5167    3.7212 C.2       1 <0>         0.4915
      6 O1          1.7544   -1.2035    3.5961 O.co2     1 <0>        -0.7152
      7 O2          0.3449   -0.2338    4.8341 O.co2     1 <0>        -0.7202
      8 C6         -1.4117   -0.5257    0.0127 C.2       1 <0>         0.5080
      9 O3         -1.8097   -1.2271   -0.9017 O.co2     1 <0>        -0.6899
     10 O4         -2.1576   -0.2463    0.9358 O.co2     1 <0>        -0.6843
     11 N1          0.6878   -0.4765   -1.2033 N.am      1 <0>        -0.6890
     12 C7          0.2113   -0.1507   -2.4212 C.2       1 <0>         0.5963
     13 O5         -0.7886    0.5361   -2.5196 O.2       1 <0>        -0.5094
     14 C8          0.8974   -0.6234   -3.6272 C.2       1 <0>        -0.1948
     15 C9          0.5793   -0.3996   -4.9581 C.2       1 <0>        -0.1021
     16 C10         1.4193   -0.9797   -5.8783 C.2       1 <0>        -0.1709
     17 C11         2.4731   -1.7114   -5.4394 C.2       1 <0>        -0.2238
     18 S1          2.3627   -1.6293   -3.7650 S.3       1 <0>         0.1887
     19 C12         3.5103   -2.4285   -6.2648 C.3       1 <0>        -0.0310
     20 C13         4.6831   -1.4857   -6.5412 C.3       1 <0>        -0.1091
     21 C14         5.7361   -2.2136   -7.3792 C.3       1 <0>        -0.1005
     22 C15         6.8583   -1.2422   -7.7486 C.3       1 <0>        -0.0411
     23 C16         8.0088   -1.9847   -8.3691 C.ar      1 <0>        -0.3610
     24 C17         8.9343   -1.2971   -9.1514 C.ar      1 <0>         0.4974
     25 N2          9.9487   -1.9684   -9.6917 N.ar      1 <0>        -0.6564
     26 C18        10.0834   -3.2710   -9.4927 C.ar      1 <0>         0.6288
     27 N3          9.2214   -3.9555   -8.7560 N.ar      1 <0>        -0.6531
     28 C19         8.1819   -3.3482   -8.1862 C.ar      1 <0>         0.4994
     29 N4          7.2858   -4.0839   -7.4250 N.pl3     1 <0>        -0.7148
     30 C20         6.3302   -3.3709   -6.5658 C.3       1 <0>         0.1247
     31 N5         11.1523   -3.9339  -10.0698 N.pl3     1 <0>        -0.8255
     32 N6          8.8003    0.0660   -9.3642 N.pl3     1 <0>        -0.8376
     33 H1          1.0039    1.9031    0.0027 H         1 <0>         0.0334
     34 H2         -0.5459    1.8868   -0.8726 H         1 <0>         0.0602
     35 H3         -0.5289    1.8773    0.9072 H         1 <0>         0.0693
     36 H4          0.7568   -1.6008    1.2356 H         1 <0>         0.0518
     37 H5          1.7647   -0.1336    1.2338 H         1 <0>         0.0450
     38 H6          0.0111    1.0724    2.5063 H         1 <0>         0.0498
     39 H7         -0.9967   -0.3948    2.5081 H         1 <0>         0.1032
     40 H8          1.4848   -1.0239   -1.1249 H         1 <0>         0.3824
     41 H9         -0.2744    0.1926   -5.2529 H         1 <0>         0.1446
     42 H10         1.2422   -0.8548   -6.9363 H         1 <0>         0.1265
     43 H11         3.8673   -3.3026   -5.7202 H         1 <0>         0.0775
     44 H12         3.0678   -2.7446   -7.2094 H         1 <0>         0.0810
     45 H13         4.3261   -0.6116   -7.0858 H         1 <0>         0.0734
     46 H14         5.1256   -1.1695   -5.5965 H         1 <0>         0.0727
     47 H15         5.2749   -2.6039   -8.2864 H         1 <0>         0.0799
     48 H16         6.4794   -0.5062   -8.4578 H         1 <0>         0.0653
     49 H17         7.2022   -0.7298   -6.8501 H         1 <0>         0.0666
     50 H18         7.2900   -5.0533   -7.4590 H         1 <0>         0.4078
     51 H19         6.8445   -2.9790   -5.6883 H         1 <0>         0.0691
     52 H20         5.5357   -4.0497   -6.2557 H         1 <0>         0.0915
     53 H21        11.7908   -3.4448  -10.6120 H         1 <0>         0.4108
     54 H22        11.2629   -4.8877   -9.9323 H         1 <0>         0.4117
     55 H23         8.0581    0.5482   -8.9673 H         1 <0>         0.4113
     56 H24         9.4487    0.5377   -9.9101 H         1 <0>         0.4037
@<TRIPOS>BOND
     1    1    2 1
     2    1   33 1
     3    1   34 1
     4    1   35 1
     5    2    3 1
     6    2    8 1
     7    2   11 1
     8    3    4 1
     9    3   36 1
    10    3   37 1
    11    4    5 1
    12    4   38 1
    13    4   39 1
    14    5    6 2
    15    5    7 1
    16    8    9 2
    17    8   10 1
    18   11   12 am
    19   11   40 1
    20   12   13 2
    21   12   14 1
    22   14   18 1
    23   14   15 2
    24   15   16 1
    25   15   41 1
    26   16   17 2
    27   16   42 1
    28   17   18 1
    29   17   19 1
    30   19   20 1
    31   19   43 1
    32   19   44 1
    33   20   21 1
    34   20   45 1
    35   20   46 1
    36   21   30 1
    37   21   22 1
    38   21   47 1
    39   22   23 1
    40   22   48 1
    41   22   49 1
    42   23   28 ar
    43   23   24 ar
    44   24   25 ar
    45   24   32 1
    46   25   26 ar
    47   26   27 ar
    48   26   31 1
    49   27   28 ar
    50   28   29 1
    51   29   30 1
    52   29   50 1
    53   30   51 1
    54   30   52 1
    55   31   53 1
    56   31   54 1
    57   32   55 1
    58   32   56 1
@<TRIPOS>MOLECULE
CHEMBL438664
   53    55     0     0     0
SMALL
USER_CHARGES

@<TRIPOS>ATOM
      1 C1         -0.1719   -3.4858   -0.6839 C.3       1 <0>        -0.1503
      2 C2         -1.6732   -3.3247   -0.9313 C.3       1 <0>        -0.0784
      3 C3         -2.1309   -1.9934   -0.3934 C.2       1 <0>        -0.0102
      4 C4         -2.6151   -1.7188    0.9594 C.ar      1 <0>        -0.2544
      5 C5         -2.8116   -2.4888    2.1164 C.ar      1 <0>         0.5833
      6 N1         -3.2837   -1.8883    3.2040 N.ar      1 <0>        -0.5899
      7 C6         -3.5640   -0.5910    3.2004 C.ar      1 <0>         0.6975
      8 N2         -3.3939    0.1696    2.1324 N.ar      1 <0>        -0.5715
      9 C7         -2.9246   -0.3475    0.9977 C.ar      1 <0>         0.3528
     10 N3         -2.6475    0.1682   -0.2419 N.pl3     1 <0>        -0.5154
     11 H1         -2.7682    1.0959   -0.4983 H         1 <0>         0.4383
     12 C8         -2.1677   -0.8216   -1.0661 C.2       1 <0>         0.0086
     13 S1         -1.6792   -0.5980   -2.7442 S.3       1 <0>         0.0932
     14 C9         -3.0298   -1.2467   -3.6713 C.ar      1 <0>        -0.1257
     15 C10        -4.1906   -1.6532   -3.0171 C.ar      1 <0>        -0.1284
     16 C11        -5.2432   -2.1578   -3.7358 C.ar      1 <0>        -0.0514
     17 C12        -5.1509   -2.2642   -5.1272 C.ar      1 <0>        -0.0870
     18 C13        -3.9844   -1.8553   -5.7812 C.ar      1 <0>        -0.0659
     19 C14        -2.9371   -1.3465   -5.0577 C.ar      1 <0>        -0.0866
     20 C15        -6.2814   -2.8071   -5.9032 C.2       1 <0>         0.5369
     21 O1         -7.2950   -3.1627   -5.3333 O.2       1 <0>        -0.5487
     22 N4         -6.1911   -2.9091   -7.2441 N.am      1 <0>        -0.6678
     23 C16        -7.3141   -3.4483   -8.0150 C.3       1 <0>         0.0721
     24 H2         -8.2524   -3.1444   -7.5511 H         1 <0>         0.0799
     25 C17        -7.2550   -2.9108   -9.4462 C.3       1 <0>        -0.0841
     26 C18        -7.4653   -1.3954   -9.4309 C.3       1 <0>        -0.1769
     27 C19        -7.4071   -0.8659  -10.8406 C.2       1 <0>         0.4900
     28 O2         -7.2154   -1.6298  -11.7713 O.co2     1 <0>        -0.6948
     29 O3         -7.5519    0.3264  -11.0504 O.co2     1 <0>        -0.7183
     30 C20        -7.2300   -4.9528   -8.0396 C.2       1 <0>         0.4983
     31 O4         -8.2483   -5.6191   -8.1146 O.co2     1 <0>        -0.6959
     32 O5         -6.1437   -5.5037   -7.9844 O.co2     1 <0>        -0.6988
     33 N5         -4.0543   -0.0116    4.3604 N.pl3     1 <0>        -0.7939
     34 N6         -2.5209   -3.8423    2.1243 N.pl3     1 <0>        -0.7737
     35 H3          0.1591   -4.4487   -1.0730 H         1 <0>         0.0762
     36 H4          0.3676   -2.6848   -1.1893 H         1 <0>         0.0704
     37 H5          0.0270   -3.4387    0.3867 H         1 <0>         0.0522
     38 H6         -1.8721   -3.3717   -2.0020 H         1 <0>         0.1056
     39 H7         -2.2127   -4.1257   -0.4260 H         1 <0>         0.0785
     40 H8         -4.2611   -1.5712   -1.9425 H         1 <0>         0.1150
     41 H9         -6.1427   -2.4732   -3.2281 H         1 <0>         0.1403
     42 H10        -3.9102   -1.9366   -6.8556 H         1 <0>         0.1440
     43 H11        -2.0376   -1.0264   -5.5627 H         1 <0>         0.1373
     44 H12        -5.3825   -2.6254   -7.6987 H         1 <0>         0.3923
     45 H13        -6.2812   -3.1381   -9.8798 H         1 <0>         0.0619
     46 H14        -8.0371   -3.3800  -10.0431 H         1 <0>         0.0758
     47 H15        -8.4391   -1.1680   -8.9972 H         1 <0>         0.0528
     48 H16        -6.6832   -0.9261   -8.8340 H         1 <0>         0.0486
     49 H17        -4.1864   -0.5528    5.1544 H         1 <0>         0.4449
     50 H18        -4.2652    0.9350    4.3780 H         1 <0>         0.4282
     51 H19        -2.1771   -4.2692    1.3240 H         1 <0>         0.4311
     52 H20        -2.6610   -4.3637    2.9301 H         1 <0>         0.4276
     53 H21        -3.6126    1.1136    2.1756 H         1 <0>         0.4342
@<TRIPOS>BOND
     1    1    2 1
     2    1   35 1
     3    1   36 1
     4    1   37 1
     5    2    3 1
     6    2   38 1
     7    2   39 1
     8    3   12 2
     9    3    4 1
    10    4    9 ar
    11    4    5 ar
    12    5    6 ar
    13    5   34 1
    14    6    7 ar
    15    7    8 ar
    16    7   33 1
    17    8    9 ar
    18    8   53 1
    19    9   10 1
    20   10   11 1
    21   10   12 1
    22   12   13 1
    23   13   14 1
    24   14   19 ar
    25   14   15 ar
    26   15   16 ar
    27   15   40 1
    28   16   17 ar
    29   16   41 1
    30   17   18 ar
    31   17   20 1
    32   18   19 ar
    33   18   42 1
    34   19   43 1
    35   20   21 2
    36   20   22 am
    37   22   23 1
    38   22   44 1
    39   23   24 1
    40   23   25 1
    41   23   30 1
    42   25   26 1
    43   25   45 1
    44   25   46 1
    45   26   27 1
    46   26   47 1
    47   26   48 1
    48   27   28 2
    49   27   29 1
    50   30   31 2
    51   30   32 1
    52   33   49 1
    53   33   50 1
    54   34   51 1
    55   34   52 1
@<TRIPOS>MOLECULE
CHEMBL145579
   61    64     0     0     0
SMALL
USER_CHARGES

@<TRIPOS>ATOM
      1 C1          0.0005    1.4600    0.0112 C.3       1 <0>         0.1181
      2 N1          0.0021   -0.0050    0.0026 N.pl3     1 <0>        -0.6633
      3 C2          0.0059   -0.7450    1.2669 C.3       1 <0>         0.2003
      4 C3         -1.4136   -1.0003    1.7038 C.ar      1 <0>         0.0444
      5 C4         -2.0261   -2.2124    1.3845 C.ar      1 <0>         0.1277
      6 N2         -3.2629   -2.4569    1.7556 N.ar      1 <0>        -0.4450
      7 C5         -3.9423   -1.5338    2.4471 C.ar      1 <0>         0.1680
      8 C6         -5.2641   -1.7661    2.8576 C.ar      1 <0>        -0.2498
      9 C7         -5.9395   -0.7970    3.5692 C.ar      1 <0>         0.2850
     10 C8         -5.3226    0.4174    3.8873 C.ar      1 <0>        -0.2768
     11 C9         -4.0375    0.6714    3.5010 C.ar      1 <0>         0.3002
     12 C10        -3.3179   -0.3023    2.7706 C.ar      1 <0>        -0.0066
     13 N3         -2.0588   -0.0810    2.3861 N.ar      1 <0>        -0.4004
     14 N4         -3.4377    1.8859    3.8252 N.pl3     1 <0>        -0.8523
     15 N5         -7.2527   -1.0302    3.9760 N.pl3     1 <0>        -0.8687
     16 C11         0.0000   -0.6903   -1.2008 C.ar      1 <0>         0.1773
     17 C12         1.1982   -1.0340   -1.7979 C.ar      1 <0>        -0.1186
     18 C13         1.2393   -1.7184   -2.9985 C.ar      1 <0>        -0.0787
     19 C14         0.0640   -2.0850   -3.6483 C.ar      1 <0>        -0.0953
     20 C15        -1.2191   -1.7347   -3.0402 C.ar      1 <0>        -0.0111
     21 C16        -1.2271   -1.0394   -1.8084 C.ar      1 <0>        -0.0590
     22 C17        -2.4544   -0.7045   -1.2169 C.ar      1 <0>        -0.1090
     23 C18        -3.6179   -1.0573   -1.8322 C.ar      1 <0>        -0.1146
     24 C19        -3.6078   -1.7466   -3.0416 C.ar      1 <0>        -0.1278
     25 C20        -2.4324   -2.0771   -3.6488 C.ar      1 <0>        -0.0941
     26 C21         0.1119   -2.8118   -4.9253 C.2       1 <0>         0.5476
     27 O1         -0.9162   -3.2202   -5.4317 O.2       1 <0>        -0.5485
     28 N6          1.2947   -3.0258   -5.5349 N.am      1 <0>        -0.6713
     29 C22         1.3424   -3.7502   -6.8074 C.3       1 <0>         0.0734
     30 C23         2.7196   -4.3951   -6.9758 C.3       1 <0>        -0.0827
     31 C24         2.9194   -5.4604   -5.8960 C.3       1 <0>        -0.1771
     32 C25         4.2759   -6.0956   -6.0619 C.2       1 <0>         0.4910
     33 O2          5.0143   -5.7301   -6.9605 O.co2     1 <0>        -0.6976
     34 O3          4.6348   -6.9750   -5.2974 O.co2     1 <0>        -0.7193
     35 C26         1.0955   -2.7894   -7.9419 C.2       1 <0>         0.4987
     36 O4          1.4295   -1.6217   -7.8355 O.co2     1 <0>        -0.6981
     37 O5          0.5616   -3.1798   -8.9661 O.co2     1 <0>        -0.7005
     38 H1          1.0277    1.8245    0.0109 H         1 <0>         0.0378
     39 H2         -0.5159    1.8280   -0.8754 H         1 <0>         0.0533
     40 H3         -0.5117    1.8175    0.9045 H         1 <0>         0.0588
     41 H4          0.5205   -1.6960    1.1297 H         1 <0>         0.0878
     42 H5          0.5209   -0.1598    2.0288 H         1 <0>         0.0860
     43 H6         -1.4784   -2.9573    0.8263 H         1 <0>         0.1654
     44 H7         -5.7504   -2.6999    2.6170 H         1 <0>         0.1298
     45 H8         -5.8694    1.1635    4.4447 H         1 <0>         0.1259
     46 H9         -3.9328    2.5529    4.3261 H         1 <0>         0.3994
     47 H10        -2.5249    2.0647    3.5501 H         1 <0>         0.4101
     48 H11        -7.6859   -1.8703    3.7582 H         1 <0>         0.4016
     49 H12        -7.7329   -0.3523    4.4768 H         1 <0>         0.3978
     50 H13         2.1249   -0.7610   -1.3151 H         1 <0>         0.1277
     51 H14         2.1934   -1.9711   -3.4370 H         1 <0>         0.1334
     52 H15        -2.4769   -0.1701   -0.2786 H         1 <0>         0.1149
     53 H16        -4.5615   -0.7987   -1.3749 H         1 <0>         0.1079
     54 H17        -4.5433   -2.0154   -3.5095 H         1 <0>         0.1182
     55 H18        -2.4374   -2.6116   -4.5872 H         1 <0>         0.1698
     56 H19         2.1144   -2.7003   -5.1311 H         1 <0>         0.3921
     57 H20         0.5753   -4.5246   -6.8137 H         1 <0>         0.0794
     58 H21         2.7858   -4.8586   -7.9602 H         1 <0>         0.0729
     59 H22         3.4921   -3.6320   -6.8809 H         1 <0>         0.0604
     60 H23         2.8532   -4.9968   -4.9117 H         1 <0>         0.0511
     61 H24         2.1468   -6.2234   -5.9910 H         1 <0>         0.0530
@<TRIPOS>BOND
     1    1    2 1
     2    1   38 1
     3    1   39 1
     4    1   40 1
     5    2    3 1
     6    2   16 1
     7    3    4 1
     8    3   41 1
     9    3   42 1
    10    4   13 ar
    11    4    5 ar
    12    5    6 ar
    13    5   43 1
    14    6    7 ar
    15    7   12 ar
    16    7    8 ar
    17    8    9 ar
    18    8   44 1
    19    9   10 ar
    20    9   15 1
    21   10   11 ar
    22   10   45 1
    23   11   12 ar
    24   11   14 1
    25   12   13 ar
    26   14   46 1
    27   14   47 1
    28   15   48 1
    29   15   49 1
    30   16   21 ar
    31   16   17 ar
    32   17   18 ar
    33   17   50 1
    34   18   19 ar
    35   18   51 1
    36   19   20 ar
    37   19   26 1
    38   20   25 ar
    39   20   21 ar
    40   21   22 ar
    41   22   23 ar
    42   22   52 1
    43   23   24 ar
    44   23   53 1
    45   24   25 ar
    46   24   54 1
    47   25   55 1
    48   26   27 2
    49   26   28 am
    50   28   29 1
    51   28   56 1
    52   29   30 1
    53   29   35 1
    54   29   57 1
    55   30   31 1
    56   30   58 1
    57   30   59 1
    58   31   32 1
    59   31   60 1
    60   31   61 1
    61   32   33 2
    62   32   34 1
    63   35   36 2
    64   35   37 1
@<TRIPOS>MOLECULE
CHEMBL145579__1
   61    64     0     0     0
SMALL
USER_CHARGES

@<TRIPOS>ATOM
      1 C1          0.0005    1.4600    0.0112 C.3       1 <0>         0.1182
      2 N1          0.0021   -0.0050    0.0026 N.pl3     1 <0>        -0.6632
      3 C2          0.0059   -0.7450    1.2669 C.3       1 <0>         0.2003
      4 C3         -1.4136   -1.0003    1.7038 C.ar      1 <0>         0.0445
      5 C4         -2.0261   -2.2124    1.3845 C.ar      1 <0>         0.1279
      6 N2         -3.2630   -2.4569    1.7556 N.ar      1 <0>        -0.4448
      7 C5         -3.9423   -1.5338    2.4471 C.ar      1 <0>         0.1680
      8 C6         -5.2641   -1.7661    2.8576 C.ar      1 <0>        -0.2497
      9 C7         -5.9395   -0.7970    3.5692 C.ar      1 <0>         0.2848
     10 C8         -5.3226    0.4175    3.8872 C.ar      1 <0>        -0.2770
     11 C9         -4.0375    0.6715    3.5010 C.ar      1 <0>         0.3001
     12 C10        -3.3179   -0.3023    2.7706 C.ar      1 <0>        -0.0068
     13 N3         -2.0588   -0.0810    2.3861 N.ar      1 <0>        -0.4005
     14 N4         -3.4377    1.8859    3.8252 N.pl3     1 <0>        -0.8523
     15 N5         -7.2527   -1.0302    3.9760 N.pl3     1 <0>        -0.8688
     16 C11         0.0000   -0.6903   -1.2008 C.ar      1 <0>         0.1758
     17 C12         1.1982   -1.0340   -1.7979 C.ar      1 <0>        -0.1181
     18 C13         1.2393   -1.7184   -2.9985 C.ar      1 <0>        -0.0794
     19 C14         0.0640   -2.0850   -3.6483 C.ar      1 <0>        -0.0927
     20 C15        -1.2191   -1.7347   -3.0402 C.ar      1 <0>        -0.0117
     21 C16        -1.2271   -1.0394   -1.8084 C.ar      1 <0>        -0.0587
     22 C17        -2.4544   -0.7045   -1.2169 C.ar      1 <0>        -0.1091
     23 C18        -3.6179   -1.0573   -1.8322 C.ar      1 <0>        -0.1149
     24 C19        -3.6078   -1.7466   -3.0416 C.ar      1 <0>        -0.1286
     25 C20        -2.4324   -2.0771   -3.6488 C.ar      1 <0>        -0.0937
     26 C21         0.1119   -2.8118   -4.9253 C.2       1 <0>         0.5546
     27 O1         -0.9162   -3.2202   -5.4317 O.2       1 <0>        -0.5498
     28 N6          1.2947   -3.0258   -5.5349 N.am      1 <0>        -0.6718
     29 C22         1.3424   -3.7502   -6.8074 C.3       1 <0>         0.0724
     30 C23         2.5989   -3.3426   -7.5795 C.3       1 <0>        -0.0806
     31 C24         2.5069   -1.8633   -7.9590 C.3       1 <0>        -0.1780
     32 C25         3.7445   -1.4619   -8.7194 C.2       1 <0>         0.4909
     33 O2          4.6190   -2.2829   -8.9376 O.co2     1 <0>        -0.6971
     34 O3          3.8712   -0.3161   -9.1164 O.co2     1 <0>        -0.7202
     35 C26         1.3757   -5.2330   -6.5405 C.2       1 <0>         0.4962
     36 O4          1.3610   -5.6464   -5.3936 O.co2     1 <0>        -0.6959
     37 O5          1.4174   -6.0192   -7.4714 O.co2     1 <0>        -0.6993
     38 H1          1.0277    1.8245    0.0109 H         1 <0>         0.0378
     39 H2         -0.5159    1.8280   -0.8754 H         1 <0>         0.0532
     40 H3         -0.5117    1.8175    0.9045 H         1 <0>         0.0586
     41 H4          0.5205   -1.6960    1.1297 H         1 <0>         0.0877
     42 H5          0.5209   -0.1598    2.0288 H         1 <0>         0.0858
     43 H6         -1.4784   -2.9573    0.8263 H         1 <0>         0.1658
     44 H7         -5.7504   -2.6999    2.6170 H         1 <0>         0.1298
     45 H8         -5.8694    1.1636    4.4447 H         1 <0>         0.1259
     46 H9         -3.9328    2.5529    4.3260 H         1 <0>         0.3994
     47 H10        -2.5249    2.0647    3.5501 H         1 <0>         0.4101
     48 H11        -7.6859   -1.8703    3.7582 H         1 <0>         0.4016
     49 H12        -7.7329   -0.3523    4.4768 H         1 <0>         0.3978
     50 H13         2.1249   -0.7610   -1.3151 H         1 <0>         0.1271
     51 H14         2.1934   -1.9711   -3.4370 H         1 <0>         0.1328
     52 H15        -2.4769   -0.1701   -0.2786 H         1 <0>         0.1147
     53 H16        -4.5615   -0.7987   -1.3749 H         1 <0>         0.1076
     54 H17        -4.5433   -2.0154   -3.5095 H         1 <0>         0.1177
     55 H18        -2.4374   -2.6116   -4.5872 H         1 <0>         0.1698
     56 H19         2.1144   -2.7003   -5.1311 H         1 <0>         0.3899
     57 H20         0.4586   -3.5070   -7.3973 H         1 <0>         0.0791
     58 H21         3.4774   -3.5034   -6.9546 H         1 <0>         0.0553
     59 H22         2.6810   -3.9453   -8.4839 H         1 <0>         0.0795
     60 H23         1.6283   -1.7025   -8.5838 H         1 <0>         0.0522
     61 H24         2.4247   -1.2606   -7.0545 H         1 <0>         0.0501
@<TRIPOS>BOND
     1    1    2 1
     2    1   38 1
     3    1   39 1
     4    1   40 1
     5    2    3 1
     6    2   16 1
     7    3    4 1
     8    3   41 1
     9    3   42 1
    10    4   13 ar
    11    4    5 ar
    12    5    6 ar
    13    5   43 1
    14    6    7 ar
    15    7   12 ar
    16    7    8 ar
    17    8    9 ar
    18    8   44 1
    19    9   10 ar
    20    9   15 1
    21   10   11 ar
    22   10   45 1
    23   11   12 ar
    24   11   14 1
    25   12   13 ar
    26   14   46 1
    27   14   47 1
    28   15   48 1
    29   15   49 1
    30   16   21 ar
    31   16   17 ar
    32   17   18 ar
    33   17   50 1
    34   18   19 ar
    35   18   51 1
    36   19   20 ar
    37   19   26 1
    38   20   25 ar
    39   20   21 ar
    40   21   22 ar
    41   22   23 ar
    42   22   52 1
    43   23   24 ar
    44   23   53 1
    45   24   25 ar
    46   24   54 1
    47   25   55 1
    48   26   27 2
    49   26   28 am
    50   28   29 1
    51   28   56 1
    52   29   30 1
    53   29   35 1
    54   29   57 1
    55   30   31 1
    56   30   58 1
    57   30   59 1
    58   31   32 1
    59   31   60 1
    60   31   61 1
    61   32   33 2
    62   32   34 1
    63   35   36 2
    64   35   37 1
@<TRIPOS>MOLECULE
CHEMBL167304
   57    59     0     0     0
SMALL
USER_CHARGES

@<TRIPOS>ATOM
      1 C1         -0.0187    1.5258    0.0104 C.3       1 <0>        -0.1372
      2 C2          0.0021   -0.0041    0.0020 C.3       1 <0>         0.0917
      3 C3          0.7421   -0.5109    1.2415 C.3       1 <0>        -0.0669
      4 C4          0.0259   -0.0175    2.5003 C.3       1 <0>        -0.1837
      5 C5          0.7548   -0.5167    3.7212 C.2       1 <0>         0.4915
      6 O1          1.7544   -1.2035    3.5961 O.co2     1 <0>        -0.7172
      7 O2          0.3449   -0.2338    4.8341 O.co2     1 <0>        -0.7169
      8 C6         -1.4117   -0.5257    0.0127 C.2       1 <0>         0.5072
      9 O3         -1.8097   -1.2271   -0.9017 O.co2     1 <0>        -0.6915
     10 O4         -2.1576   -0.2463    0.9358 O.co2     1 <0>        -0.6795
     11 N1          0.6878   -0.4765   -1.2033 N.am      1 <0>        -0.6820
     12 C7          0.2113   -0.1507   -2.4212 C.2       1 <0>         0.5921
     13 O5         -0.7886    0.5360   -2.5196 O.2       1 <0>        -0.4984
     14 C8          0.8977   -0.6236   -3.6278 C.2       1 <0>        -0.0208
     15 C9          0.5268   -0.3637   -4.9159 C.2       1 <0>        -0.1527
     16 C10         1.4606   -1.0078   -5.7426 C.2       1 <0>        -0.2063
     17 C11         2.3493   -1.6249   -4.9330 C.2       1 <0>        -0.0252
     18 O6          2.0097   -1.3869   -3.6596 O.3       1 <0>        -0.1592
     19 C12         3.5307   -2.4423   -5.3882 C.3       1 <0>        -0.0369
     20 C13         4.7519   -1.5331   -5.5400 C.3       1 <0>        -0.1142
     21 C14         5.9513   -2.3630   -6.0021 C.3       1 <0>        -0.1053
     22 C15         7.1983   -1.4787   -6.0502 C.3       1 <0>        -0.0590
     23 C16         8.3305   -2.2080   -6.7182 C.ar      1 <0>        -0.3043
     24 C17         9.6428   -1.7903   -6.5064 C.ar      1 <0>         0.5404
     25 N2         10.6338   -2.4447   -7.1074 N.ar      1 <0>        -0.5913
     26 C18        10.3841   -3.4782   -7.8973 C.ar      1 <0>         0.6793
     27 N3          9.1491   -3.9018   -8.1200 N.ar      1 <0>        -0.6010
     28 C19         8.1094   -3.2955   -7.5493 C.ar      1 <0>         0.5020
     29 N4          6.8244   -3.7597   -7.7879 N.pl3     1 <0>        -0.6960
     30 C20         5.6822   -2.9171   -7.4073 C.3       1 <0>         0.1120
     31 N5         11.4410   -4.1321   -8.5059 N.pl3     1 <0>        -0.7995
     32 N6          9.9122   -0.7090   -5.6820 N.pl3     1 <0>        -0.7861
     33 H1          1.0039    1.9031    0.0027 H         1 <0>         0.0333
     34 H2         -0.5459    1.8868   -0.8726 H         1 <0>         0.0600
     35 H3         -0.5289    1.8773    0.9072 H         1 <0>         0.0717
     36 H4          0.7568   -1.6008    1.2356 H         1 <0>         0.0515
     37 H5          1.7647   -0.1336    1.2338 H         1 <0>         0.0443
     38 H6          0.0111    1.0724    2.5063 H         1 <0>         0.0506
     39 H7         -0.9967   -0.3948    2.5081 H         1 <0>         0.1037
     40 H8          1.4848   -1.0239   -1.1249 H         1 <0>         0.3875
     41 H9         -0.3208    0.2238   -5.2366 H         1 <0>         0.1575
     42 H10         1.4673   -1.0101   -6.8226 H         1 <0>         0.1471
     43 H11         3.7432   -3.2160   -4.6504 H         1 <0>         0.0862
     44 H12         3.3028   -2.9077   -6.3472 H         1 <0>         0.0894
     45 H13         4.5394   -0.7595   -6.2779 H         1 <0>         0.0791
     46 H14         4.9798   -1.0678   -4.5811 H         1 <0>         0.0863
     47 H15         6.1131   -3.1884   -5.3089 H         1 <0>         0.0942
     48 H16         6.9749   -0.5700   -6.6093 H         1 <0>         0.0919
     49 H17         7.4906   -1.2116   -5.0347 H         1 <0>         0.0928
     50 H18         6.6819   -4.6264   -8.1997 H         1 <0>         0.4208
     51 H19         4.7701   -3.5138   -7.3999 H         1 <0>         0.1155
     52 H20         5.5796   -2.0943   -8.1147 H         1 <0>         0.0922
     53 H21        12.3505   -3.8321   -8.3517 H         1 <0>         0.4430
     54 H22        11.2723   -4.8905   -9.0868 H         1 <0>         0.4262
     55 H23         9.1845   -0.2370   -5.2478 H         1 <0>         0.4311
     56 H24        10.8285   -0.4242   -5.5395 H         1 <0>         0.4246
     57 H25         9.0003   -4.6616   -8.7044 H         1 <0>         0.4340
@<TRIPOS>BOND
     1    1    2 1
     2    1   33 1
     3    1   34 1
     4    1   35 1
     5    2    3 1
     6    2    8 1
     7    2   11 1
     8    3    4 1
     9    3   36 1
    10    3   37 1
    11    4    5 1
    12    4   38 1
    13    4   39 1
    14    5    6 2
    15    5    7 1
    16    8    9 2
    17    8   10 1
    18   11   12 am
    19   11   40 1
    20   12   13 2
    21   12   14 1
    22   14   18 1
    23   14   15 2
    24   15   16 1
    25   15   41 1
    26   16   17 2
    27   16   42 1
    28   17   18 1
    29   17   19 1
    30   19   20 1
    31   19   43 1
    32   19   44 1
    33   20   21 1
    34   20   45 1
    35   20   46 1
    36   21   30 1
    37   21   22 1
    38   21   47 1
    39   22   23 1
    40   22   48 1
    41   22   49 1
    42   23   28 ar
    43   23   24 ar
    44   24   25 ar
    45   24   32 1
    46   25   26 ar
    47   26   27 ar
    48   26   31 1
    49   27   28 ar
    50   27   57 1
    51   28   29 1
    52   29   30 1
    53   29   50 1
    54   30   51 1
    55   30   52 1
    56   31   53 1
    57   31   54 1
    58   32   55 1
    59   32   56 1
@<TRIPOS>MOLECULE
CHEMBL167304__1
   56    58     0     0     0
SMALL
USER_CHARGES

@<TRIPOS>ATOM
      1 C1         -0.0187    1.5258    0.0104 C.3       1 <0>        -0.1370
      2 C2          0.0021   -0.0041    0.0020 C.3       1 <0>         0.0924
      3 C3          0.7421   -0.5109    1.2415 C.3       1 <0>        -0.0681
      4 C4          0.0259   -0.0175    2.5003 C.3       1 <0>        -0.1826
      5 C5          0.7548   -0.5167    3.7212 C.2       1 <0>         0.4914
      6 O1          1.7544   -1.2035    3.5961 O.co2     1 <0>        -0.7151
      7 O2          0.3449   -0.2338    4.8341 O.co2     1 <0>        -0.7201
      8 C6         -1.4117   -0.5257    0.0127 C.2       1 <0>         0.5080
      9 O3         -1.8097   -1.2271   -0.9017 O.co2     1 <0>        -0.6902
     10 O4         -2.1576   -0.2463    0.9358 O.co2     1 <0>        -0.6834
     11 N1          0.6878   -0.4765   -1.2033 N.am      1 <0>        -0.6841
     12 C7          0.2113   -0.1507   -2.4212 C.2       1 <0>         0.5963
     13 O5         -0.7886    0.5360   -2.5196 O.2       1 <0>        -0.5041
     14 C8          0.8977   -0.6236   -3.6278 C.2       1 <0>        -0.0327
     15 C9          0.5268   -0.3637   -4.9159 C.2       1 <0>        -0.1494
     16 C10         1.4606   -1.0078   -5.7426 C.2       1 <0>        -0.2143
     17 C11         2.3493   -1.6249   -4.9330 C.2       1 <0>        -0.0093
     18 O6          2.0097   -1.3869   -3.6596 O.3       1 <0>        -0.1594
     19 C12         3.5307   -2.4423   -5.3882 C.3       1 <0>        -0.0396
     20 C13         4.7519   -1.5331   -5.5400 C.3       1 <0>        -0.1106
     21 C14         5.9513   -2.3630   -6.0021 C.3       1 <0>        -0.1023
     22 C15         7.1983   -1.4787   -6.0502 C.3       1 <0>        -0.0417
     23 C16         8.3305   -2.2080   -6.7182 C.ar      1 <0>        -0.3600
     24 C17         9.6428   -1.7903   -6.5064 C.ar      1 <0>         0.4982
     25 N2         10.6338   -2.4447   -7.1074 N.ar      1 <0>        -0.6557
     26 C18        10.3841   -3.4782   -7.8973 C.ar      1 <0>         0.6285
     27 N3          9.1491   -3.9018   -8.1200 N.ar      1 <0>        -0.6537
     28 C19         8.1094   -3.2955   -7.5493 C.ar      1 <0>         0.4985
     29 N4          6.8244   -3.7597   -7.7879 N.pl3     1 <0>        -0.7159
     30 C20         5.6822   -2.9171   -7.4073 C.3       1 <0>         0.1273
     31 N5         11.4410   -4.1321   -8.5059 N.pl3     1 <0>        -0.8258
     32 N6          9.9122   -0.7090   -5.6820 N.pl3     1 <0>        -0.8366
     33 H1          1.0039    1.9031    0.0027 H         1 <0>         0.0336
     34 H2         -0.5459    1.8868   -0.8726 H         1 <0>         0.0601
     35 H3         -0.5289    1.8773    0.9072 H         1 <0>         0.0700
     36 H4          0.7568   -1.6008    1.2356 H         1 <0>         0.0518
     37 H5          1.7647   -0.1336    1.2338 H         1 <0>         0.0450
     38 H6          0.0111    1.0724    2.5063 H         1 <0>         0.0499
     39 H7         -0.9967   -0.3948    2.5081 H         1 <0>         0.1032
     40 H8          1.4848   -1.0239   -1.1249 H         1 <0>         0.3889
     41 H9         -0.3208    0.2238   -5.2366 H         1 <0>         0.1551
     42 H10         1.4673   -1.0101   -6.8226 H         1 <0>         0.1474
     43 H11         3.7432   -3.2160   -4.6504 H         1 <0>         0.0846
     44 H12         3.3028   -2.9077   -6.3472 H         1 <0>         0.0918
     45 H13         4.5394   -0.7595   -6.2779 H         1 <0>         0.0726
     46 H14         4.9798   -1.0678   -4.5811 H         1 <0>         0.0772
     47 H15         6.1131   -3.1884   -5.3089 H         1 <0>         0.0834
     48 H16         6.9749   -0.5700   -6.6093 H         1 <0>         0.0654
     49 H17         7.4906   -1.2116   -5.0347 H         1 <0>         0.0682
     50 H18         6.6819   -4.6264   -8.1997 H         1 <0>         0.4074
     51 H19         4.7701   -3.5138   -7.3999 H         1 <0>         0.0905
     52 H20         5.5796   -2.0943   -8.1147 H         1 <0>         0.0664
     53 H21        12.3505   -3.8321   -8.3517 H         1 <0>         0.4109
     54 H22        11.2723   -4.8905   -9.0868 H         1 <0>         0.4113
     55 H23         9.1845   -0.2370   -5.2478 H         1 <0>         0.4123
     56 H24        10.8285   -0.4242   -5.5395 H         1 <0>         0.4042
@<TRIPOS>BOND
     1    1    2 1
     2    1   33 1
     3    1   34 1
     4    1   35 1
     5    2    3 1
     6    2    8 1
     7    2   11 1
     8    3    4 1
     9    3   36 1
    10    3   37 1
    11    4    5 1
    12    4   38 1
    13    4   39 1
    14    5    6 2
    15    5    7 1
    16    8    9 2
    17    8   10 1
    18   11   12 am
    19   11   40 1
    20   12   13 2
    21   12   14 1
    22   14   18 1
    23   14   15 2
    24   15   16 1
    25   15   41 1
    26   16   17 2
    27   16   42 1
    28   17   18 1
    29   17   19 1
    30   19   20 1
    31   19   43 1
    32   19   44 1
    33   20   21 1
    34   20   45 1
    35   20   46 1
    36   21   30 1
    37   21   22 1
    38   21   47 1
    39   22   23 1
    40   22   48 1
    41   22   49 1
    42   23   28 ar
    43   23   24 ar
    44   24   25 ar
    45   24   32 1
    46   25   26 ar
    47   26   27 ar
    48   26   31 1
    49   27   28 ar
    50   28   29 1
    51   29   30 1
    52   29   50 1
    53   30   51 1
    54   30   52 1
    55   31   53 1
    56   31   54 1
    57   32   55 1
    58   32   56 1
@<TRIPOS>MOLECULE
CHEMBL167304__2
   57    59     0     0     0
SMALL
USER_CHARGES

@<TRIPOS>ATOM
      1 C1         -0.0187    1.5258    0.0104 C.3       1 <0>        -0.1373
      2 C2          0.0021   -0.0041    0.0020 C.3       1 <0>         0.0917
      3 C3          0.7421   -0.5109    1.2415 C.3       1 <0>        -0.0664
      4 C4          0.0259   -0.0175    2.5003 C.3       1 <0>        -0.1839
      5 C5          0.7548   -0.5167    3.7212 C.2       1 <0>         0.4916
      6 O1          1.7544   -1.2035    3.5961 O.co2     1 <0>        -0.7178
      7 O2          0.3449   -0.2338    4.8341 O.co2     1 <0>        -0.7166
      8 C6         -1.4117   -0.5257    0.0127 C.2       1 <0>         0.5071
      9 O3         -1.8097   -1.2271   -0.9017 O.co2     1 <0>        -0.6914
     10 O4         -2.1576   -0.2463    0.9358 O.co2     1 <0>        -0.6795
     11 N1          0.6878   -0.4765   -1.2033 N.am      1 <0>        -0.6823
     12 C7          0.2113   -0.1507   -2.4212 C.2       1 <0>         0.5923
     13 O5         -0.7886    0.5360   -2.5196 O.2       1 <0>        -0.4979
     14 C8          0.8977   -0.6236   -3.6278 C.2       1 <0>        -0.0215
     15 C9          0.5268   -0.3637   -4.9159 C.2       1 <0>        -0.1520
     16 C10         1.4606   -1.0078   -5.7426 C.2       1 <0>        -0.2048
     17 C11         2.3493   -1.6249   -4.9330 C.2       1 <0>        -0.0264
     18 O6          2.0097   -1.3869   -3.6596 O.3       1 <0>        -0.1603
     19 C12         3.5307   -2.4423   -5.3882 C.3       1 <0>        -0.0361
     20 C13         4.7519   -1.5331   -5.5400 C.3       1 <0>        -0.1150
     21 C14         5.9513   -2.3630   -6.0021 C.3       1 <0>        -0.1027
     22 C15         7.1441   -1.4407   -6.2591 C.3       1 <0>        -0.0582
     23 C16         8.3903   -2.2498   -6.4880 C.ar      1 <0>        -0.3065
     24 C17         9.4777   -1.6748   -7.1424 C.ar      1 <0>         0.5400
     25 N2         10.5746   -2.4035   -7.3350 N.ar      1 <0>        -0.5924
     26 C18        10.6394   -3.6575   -6.9133 C.ar      1 <0>         0.6798
     27 N3          9.6241   -4.2354   -6.2892 N.ar      1 <0>        -0.6008
     28 C19         8.4949   -3.5657   -6.0638 C.ar      1 <0>         0.5036
     29 N4          7.4400   -4.1910   -5.4158 N.pl3     1 <0>        -0.6931
     30 C20         6.3306   -3.3710   -4.9094 C.3       1 <0>         0.1079
     31 N5         11.7978   -4.3827   -7.1307 N.pl3     1 <0>        -0.7993
     32 N6          9.4178   -0.3631   -7.5866 N.pl3     1 <0>        -0.7888
     33 H1          1.0039    1.9031    0.0027 H         1 <0>         0.0332
     34 H2         -0.5459    1.8868   -0.8726 H         1 <0>         0.0602
     35 H3         -0.5289    1.8773    0.9072 H         1 <0>         0.0717
     36 H4          0.7568   -1.6008    1.2356 H         1 <0>         0.0513
     37 H5          1.7647   -0.1336    1.2338 H         1 <0>         0.0440
     38 H6          0.0111    1.0724    2.5063 H         1 <0>         0.0507
     39 H7         -0.9967   -0.3948    2.5081 H         1 <0>         0.1038
     40 H8          1.4848   -1.0239   -1.1249 H         1 <0>         0.3870
     41 H9         -0.3208    0.2238   -5.2366 H         1 <0>         0.1575
     42 H10         1.4673   -1.0101   -6.8226 H         1 <0>         0.1477
     43 H11         3.7432   -3.2160   -4.6504 H         1 <0>         0.0822
     44 H12         3.3028   -2.9077   -6.3472 H         1 <0>         0.0932
     45 H13         4.5394   -0.7595   -6.2779 H         1 <0>         0.0840
     46 H14         4.9798   -1.0678   -4.5811 H         1 <0>         0.0816
     47 H15         5.6955   -2.8961   -6.9178 H         1 <0>         0.0916
     48 H16         6.9443   -0.8292   -7.1390 H         1 <0>         0.0901
     49 H17         7.2896   -0.7904   -5.3966 H         1 <0>         0.0933
     50 H18         7.4348   -5.1538   -5.2985 H         1 <0>         0.4217
     51 H19         6.6448   -2.8399   -4.0109 H         1 <0>         0.0963
     52 H20         5.4755   -4.0076   -4.6821 H         1 <0>         0.1179
     53 H21        12.5488   -3.9719   -7.5867 H         1 <0>         0.4427
     54 H22        11.8587   -5.3020   -6.8270 H         1 <0>         0.4267
     55 H23         8.6147    0.1615   -7.4428 H         1 <0>         0.4299
     56 H24        10.1790    0.0301   -8.0414 H         1 <0>         0.4237
     57 H25         9.7037   -5.1556   -5.9930 H         1 <0>         0.4348
@<TRIPOS>BOND
     1    1    2 1
     2    1   33 1
     3    1   34 1
     4    1   35 1
     5    2    3 1
     6    2    8 1
     7    2   11 1
     8    3    4 1
     9    3   36 1
    10    3   37 1
    11    4    5 1
    12    4   38 1
    13    4   39 1
    14    5    6 2
    15    5    7 1
    16    8    9 2
    17    8   10 1
    18   11   12 am
    19   11   40 1
    20   12   13 2
    21   12   14 1
    22   14   18 1
    23   14   15 2
    24   15   16 1
    25   15   41 1
    26   16   17 2
    27   16   42 1
    28   17   18 1
    29   17   19 1
    30   19   20 1
    31   19   43 1
    32   19   44 1
    33   20   21 1
    34   20   45 1
    35   20   46 1
    36   21   30 1
    37   21   22 1
    38   21   47 1
    39   22   23 1
    40   22   48 1
    41   22   49 1
    42   23   28 ar
    43   23   24 ar
    44   24   25 ar
    45   24   32 1
    46   25   26 ar
    47   26   27 ar
    48   26   31 1
    49   27   28 ar
    50   27   57 1
    51   28   29 1
    52   29   30 1
    53   29   50 1
    54   30   51 1
    55   30   52 1
    56   31   53 1
    57   31   54 1
    58   32   55 1
    59   32   56 1
@<TRIPOS>MOLECULE
CHEMBL167304__3
   56    58     0     0     0
SMALL
USER_CHARGES

@<TRIPOS>ATOM
      1 C1         -0.0187    1.5258    0.0104 C.3       1 <0>        -0.1370
      2 C2          0.0021   -0.0041    0.0020 C.3       1 <0>         0.0924
      3 C3          0.7421   -0.5109    1.2415 C.3       1 <0>        -0.0679
      4 C4          0.0259   -0.0175    2.5003 C.3       1 <0>        -0.1827
      5 C5          0.7548   -0.5167    3.7212 C.2       1 <0>         0.4913
      6 O1          1.7544   -1.2035    3.5961 O.co2     1 <0>        -0.7151
      7 O2          0.3449   -0.2338    4.8341 O.co2     1 <0>        -0.7200
      8 C6         -1.4117   -0.5257    0.0127 C.2       1 <0>         0.5080
      9 O3         -1.8097   -1.2271   -0.9017 O.co2     1 <0>        -0.6903
     10 O4         -2.1576   -0.2463    0.9358 O.co2     1 <0>        -0.6834
     11 N1          0.6878   -0.4765   -1.2033 N.am      1 <0>        -0.6840
     12 C7          0.2113   -0.1507   -2.4212 C.2       1 <0>         0.5963
     13 O5         -0.7886    0.5360   -2.5196 O.2       1 <0>        -0.5040
     14 C8          0.8977   -0.6236   -3.6278 C.2       1 <0>        -0.0326
     15 C9          0.5268   -0.3637   -4.9159 C.2       1 <0>        -0.1494
     16 C10         1.4606   -1.0078   -5.7426 C.2       1 <0>        -0.2141
     17 C11         2.3493   -1.6249   -4.9330 C.2       1 <0>        -0.0096
     18 O6          2.0097   -1.3869   -3.6596 O.3       1 <0>        -0.1594
     19 C12         3.5307   -2.4423   -5.3882 C.3       1 <0>        -0.0393
     20 C13         4.7519   -1.5331   -5.5400 C.3       1 <0>        -0.1113
     21 C14         5.9513   -2.3630   -6.0021 C.3       1 <0>        -0.0997
     22 C15         7.1441   -1.4407   -6.2591 C.3       1 <0>        -0.0411
     23 C16         8.3903   -2.2498   -6.4880 C.ar      1 <0>        -0.3609
     24 C17         9.4777   -1.6748   -7.1424 C.ar      1 <0>         0.4972
     25 N2         10.5746   -2.4035   -7.3350 N.ar      1 <0>        -0.6567
     26 C18        10.6394   -3.6575   -6.9133 C.ar      1 <0>         0.6286
     27 N3          9.6241   -4.2354   -6.2892 N.ar      1 <0>        -0.6527
     28 C19         8.4949   -3.5657   -6.0638 C.ar      1 <0>         0.4996
     29 N4          7.4400   -4.1910   -5.4158 N.pl3     1 <0>        -0.7141
     30 C20         6.3306   -3.3710   -4.9094 C.3       1 <0>         0.1232
     31 N5         11.7978   -4.3827   -7.1307 N.pl3     1 <0>        -0.8257
     32 N6          9.4178   -0.3631   -7.5866 N.pl3     1 <0>        -0.8380
     33 H1          1.0039    1.9031    0.0027 H         1 <0>         0.0336
     34 H2         -0.5459    1.8868   -0.8726 H         1 <0>         0.0600
     35 H3         -0.5289    1.8773    0.9072 H         1 <0>         0.0699
     36 H4          0.7568   -1.6008    1.2356 H         1 <0>         0.0518
     37 H5          1.7647   -0.1336    1.2338 H         1 <0>         0.0450
     38 H6          0.0111    1.0724    2.5063 H         1 <0>         0.0499
     39 H7         -0.9967   -0.3948    2.5081 H         1 <0>         0.1032
     40 H8          1.4848   -1.0239   -1.1249 H         1 <0>         0.3888
     41 H9         -0.3208    0.2238   -5.2366 H         1 <0>         0.1551
     42 H10         1.4673   -1.0101   -6.8226 H         1 <0>         0.1472
     43 H11         3.7432   -3.2160   -4.6504 H         1 <0>         0.0840
     44 H12         3.3028   -2.9077   -6.3472 H         1 <0>         0.0924
     45 H13         4.5394   -0.7595   -6.2779 H         1 <0>         0.0748
     46 H14         4.9798   -1.0678   -4.5811 H         1 <0>         0.0750
     47 H15         5.6955   -2.8961   -6.9178 H         1 <0>         0.0807
     48 H16         6.9443   -0.8292   -7.1390 H         1 <0>         0.0654
     49 H17         7.2896   -0.7904   -5.3966 H         1 <0>         0.0670
     50 H18         7.4348   -5.1538   -5.2985 H         1 <0>         0.4081
     51 H19         6.6448   -2.8399   -4.0109 H         1 <0>         0.0704
     52 H20         5.4755   -4.0076   -4.6821 H         1 <0>         0.0928
     53 H21        12.5488   -3.9719   -7.5867 H         1 <0>         0.4106
     54 H22        11.8587   -5.3020   -6.8270 H         1 <0>         0.4118
     55 H23         8.6147    0.1615   -7.4428 H         1 <0>         0.4112
     56 H24        10.1790    0.0301   -8.0414 H         1 <0>         0.4034
@<TRIPOS>BOND
     1    1    2 1
     2    1   33 1
     3    1   34 1
     4    1   35 1
     5    2    3 1
     6    2    8 1
     7    2   11 1
     8    3    4 1
     9    3   36 1
    10    3   37 1
    11    4    5 1
    12    4   38 1
    13    4   39 1
    14    5    6 2
    15    5    7 1
    16    8    9 2
    17    8   10 1
    18   11   12 am
    19   11   40 1
    20   12   13 2
    21   12   14 1
    22   14   18 1
    23   14   15 2
    24   15   16 1
    25   15   41 1
    26   16   17 2
    27   16   42 1
    28   17   18 1
    29   17   19 1
    30   19   20 1
    31   19   43 1
    32   19   44 1
    33   20   21 1
    34   20   45 1
    35   20   46 1
    36   21   30 1
    37   21   22 1
    38   21   47 1
    39   22   23 1
    40   22   48 1
    41   22   49 1
    42   23   28 ar
    43   23   24 ar
    44   24   25 ar
    45   24   32 1
    46   25   26 ar
    47   26   27 ar
    48   26   31 1
    49   27   28 ar
    50   28   29 1
    51   29   30 1
    52   29   50 1
    53   30   51 1
    54   30   52 1
    55   31   53 1
    56   31   54 1
    57   32   55 1
    58   32   56 1
@<TRIPOS>MOLECULE
CHEMBL104787
   41    43     0     0     0
SMALL
USER_CHARGES

@<TRIPOS>ATOM
      1 C1         -1.6006    1.3845    0.6736 C.3       1 <0>        -0.1164
      2 C2         -1.4300   -0.1111    0.6024 C.2       1 <0>        -0.0627
      3 C3         -2.0893   -0.8255   -0.3206 C.2       1 <0>        -0.1519
      4 S1         -1.5664   -2.5001   -0.0032 S.3       1 <0>         0.1173
      5 C4         -0.4759   -2.1949    1.3615 C.ar      1 <0>         0.1837
      6 C5         -0.5442   -0.7949    1.5298 C.ar      1 <0>        -0.2882
      7 C6          0.2561   -0.2646    2.5793 C.ar      1 <0>         0.5261
      8 N1          0.9950   -1.0846    3.3077 N.ar      1 <0>        -0.6263
      9 C7          1.0164   -2.3941    3.0924 C.ar      1 <0>         0.6216
     10 N2          0.2838   -2.9458    2.1350 N.ar      1 <0>        -0.5667
     11 N3          1.8117   -3.2008    3.8896 N.pl3     1 <0>        -0.8133
     12 N4          0.2617    1.0945    2.8351 N.pl3     1 <0>        -0.8423
     13 C8         -3.0453   -0.3308   -1.3754 C.3       1 <0>         0.0167
     14 C9         -2.2804    0.0016   -2.6305 C.ar      1 <0>        -0.0738
     15 C10        -1.8633    1.2981   -2.8623 C.ar      1 <0>        -0.1052
     16 C11        -1.1590    1.6039   -4.0171 C.ar      1 <0>         0.0925
     17 C12        -0.8733    0.6080   -4.9395 C.ar      1 <0>        -0.1680
     18 C13        -1.2903   -0.6881   -4.7078 C.ar      1 <0>        -0.1667
     19 C14        -1.9902   -0.9950   -3.5502 C.ar      1 <0>         0.1038
     20 O1         -2.3959   -2.2722   -3.3193 O.3       1 <0>        -0.3092
     21 C15        -2.0625   -3.2477   -4.3089 C.3       1 <0>         0.0271
     22 O2         -0.7488    2.8801   -4.2455 O.3       1 <0>        -0.3176
     23 C16        -0.0282    3.1233   -5.4553 C.3       1 <0>         0.0276
     24 H1         -0.7845    1.8692    0.1377 H         1 <0>         0.0738
     25 H2         -2.5508    1.6639    0.2183 H         1 <0>         0.0758
     26 H3         -1.5899    1.7022    1.7162 H         1 <0>         0.0729
     27 H4          2.3462   -2.8076    4.5971 H         1 <0>         0.4166
     28 H5          1.8342   -4.1590    3.7402 H         1 <0>         0.4177
     29 H6          0.1095    1.7245    2.1134 H         1 <0>         0.4145
     30 H7          0.4180    1.4177    3.7362 H         1 <0>         0.4071
     31 H8         -3.7800   -1.1063   -1.5922 H         1 <0>         0.0965
     32 H9         -3.5553    0.5619   -1.0135 H         1 <0>         0.0980
     33 H10        -2.0860    2.0735   -2.1443 H         1 <0>         0.1379
     34 H11        -0.3251    0.8462   -5.8391 H         1 <0>         0.1302
     35 H12        -1.0685   -1.4633   -5.4263 H         1 <0>         0.1319
     36 H13        -2.4440   -4.2216   -4.0022 H         1 <0>         0.1014
     37 H14        -2.5101   -2.9660   -5.2621 H         1 <0>         0.0538
     38 H15        -0.9792   -3.2996   -4.4175 H         1 <0>         0.0546
     39 H16         0.2389    4.1785   -5.5132 H         1 <0>         0.1004
     40 H17         0.8782    2.5180   -5.4662 H         1 <0>         0.0540
     41 H18        -0.6520    2.8590   -6.3091 H         1 <0>         0.0547
@<TRIPOS>BOND
     1    1    2 1
     2    1   24 1
     3    1   25 1
     4    1   26 1
     5    2    6 1
     6    2    3 2
     7    3    4 1
     8    3   13 1
     9    4    5 1
    10    5   10 ar
    11    5    6 ar
    12    6    7 ar
    13    7    8 ar
    14    7   12 1
    15    8    9 ar
    16    9   10 ar
    17    9   11 1
    18   11   27 1
    19   11   28 1
    20   12   29 1
    21   12   30 1
    22   13   14 1
    23   13   31 1
    24   13   32 1
    25   14   19 ar
    26   14   15 ar
    27   15   16 ar
    28   15   33 1
    29   16   17 ar
    30   16   22 1
    31   17   18 ar
    32   17   34 1
    33   18   19 ar
    34   18   35 1
    35   19   20 1
    36   20   21 1
    37   21   36 1
    38   21   37 1
    39   21   38 1
    40   22   23 1
    41   23   39 1
    42   23   40 1
    43   23   41 1
@<TRIPOS>MOLECULE
CHEMBL327066
   51    53     0     0     0
SMALL
USER_CHARGES

@<TRIPOS>ATOM
      1 C1         -0.0168    1.3913    0.0097 C.ar      1 <0>        -0.0796
      2 C2          1.1671    2.0967    0.0022 C.ar      1 <0>        -0.0609
      3 C3          2.3853    1.4152   -0.0131 C.ar      1 <0>        -0.1257
      4 C4          2.4040    0.0194   -0.0207 C.ar      1 <0>        -0.0651
      5 C5          1.2198   -0.6855   -0.0132 C.ar      1 <0>        -0.1001
      6 C6          0.0021   -0.0041    0.0020 C.ar      1 <0>        -0.0650
      7 C7         -1.2699   -0.7616    0.0105 C.2       1 <0>         0.5377
      8 O1         -2.3304   -0.1682    0.0242 O.2       1 <0>        -0.5447
      9 N1         -1.2517   -2.1092    0.0031 N.am      1 <0>        -0.6703
     10 C8         -2.5104   -2.8588    0.0116 C.3       1 <0>         0.0727
     11 H1         -3.2591   -2.3182   -0.5676 H         1 <0>         0.0797
     12 C9         -2.2858   -4.2397   -0.6077 C.3       1 <0>        -0.0831
     13 C10        -1.9181   -4.0826   -2.0846 C.3       1 <0>        -0.1776
     14 C11        -1.6969   -5.4428   -2.6946 C.2       1 <0>         0.4910
     15 O2         -1.8217   -6.4449   -2.0114 O.co2     1 <0>        -0.6972
     16 O3         -1.3930   -5.5411   -3.8712 O.co2     1 <0>        -0.7190
     17 C12        -2.9914   -3.0170    1.4310 C.2       1 <0>         0.4983
     18 O4         -4.1856   -3.0912    1.6653 O.co2     1 <0>        -0.6991
     19 O5         -2.1863   -3.0708    2.3450 O.co2     1 <0>        -0.6978
     20 C13         3.6563    2.1721   -0.0216 C.2       1 <0>         0.5248
     21 O6          3.6399    3.3864   -0.0154 O.2       1 <0>        -0.5032
     22 O7          4.8317    1.5145   -0.0363 O.3       1 <0>        -0.3486
     23 C14         6.0195    2.3089   -0.0439 C.3       1 <0>         0.1326
     24 C15         7.2268    1.4071   -0.0601 C.ar      1 <0>         0.0472
     25 C16         7.0549    0.0233   -0.0712 C.ar      1 <0>         0.1645
     26 N2          8.0938   -0.7845   -0.0859 N.ar      1 <0>        -0.4347
     27 C17         9.3268   -0.2719   -0.0903 C.ar      1 <0>         0.3726
     28 C18         9.4958    1.1352   -0.0790 C.ar      1 <0>        -0.0887
     29 N3          8.4330    1.9334   -0.0692 N.ar      1 <0>        -0.3783
     30 C19        10.8626    1.6595   -0.0847 C.ar      1 <0>         0.5445
     31 N4         11.8583    0.7842   -0.1002 N.ar      1 <0>        -0.6290
     32 C20        11.6264   -0.5247   -0.1101 C.ar      1 <0>         0.6372
     33 N5         10.4169   -1.0489   -0.1055 N.ar      1 <0>        -0.5973
     34 N6         12.7106   -1.3812   -0.1260 N.pl3     1 <0>        -0.8086
     35 N7         11.1058    3.0155   -0.0749 N.pl3     1 <0>        -0.7935
     36 H2         -0.9593    1.9185    0.0260 H         1 <0>         0.1468
     37 H3          1.1524    3.1766    0.0077 H         1 <0>         0.1404
     38 H4          3.3464   -0.5081   -0.0328 H         1 <0>         0.1427
     39 H5          1.2342   -1.7654   -0.0191 H         1 <0>         0.1418
     40 H6         -0.4053   -2.5828   -0.0078 H         1 <0>         0.3930
     41 H7         -1.4752   -4.7456   -0.0833 H         1 <0>         0.0614
     42 H8         -3.1984   -4.8295   -0.5212 H         1 <0>         0.0738
     43 H9         -2.7288   -3.5767   -2.6090 H         1 <0>         0.0530
     44 H10        -1.0056   -3.4928   -2.1711 H         1 <0>         0.0512
     45 H11         6.0272    2.9424   -0.9308 H         1 <0>         0.0958
     46 H12         6.0445    2.9335    0.8490 H         1 <0>         0.0958
     47 H13         6.0573   -0.3905   -0.0673 H         1 <0>         0.1931
     48 H14        13.6119   -1.0227   -0.1297 H         1 <0>         0.4153
     49 H15        12.5705   -2.3410   -0.1335 H         1 <0>         0.4199
     50 H16        10.3646    3.6411   -0.0640 H         1 <0>         0.4260
     51 H17        12.0183    3.3446   -0.0789 H         1 <0>         0.4147
@<TRIPOS>BOND
     1    1    6 ar
     2    1    2 ar
     3    1   36 1
     4    2    3 ar
     5    2   37 1
     6    3    4 ar
     7    3   20 1
     8    4    5 ar
     9    4   38 1
    10    5    6 ar
    11    5   39 1
    12    6    7 1
    13    7    8 2
    14    7    9 am
    15    9   10 1
    16    9   40 1
    17   10   11 1
    18   10   12 1
    19   10   17 1
    20   12   13 1
    21   12   41 1
    22   12   42 1
    23   13   14 1
    24   13   43 1
    25   13   44 1
    26   14   15 2
    27   14   16 1
    28   17   18 2
    29   17   19 1
    30   20   21 2
    31   20   22 1
    32   22   23 1
    33   23   24 1
    34   23   45 1
    35   23   46 1
    36   24   29 ar
    37   24   25 ar
    38   25   26 ar
    39   25   47 1
    40   26   27 ar
    41   27   33 ar
    42   27   28 ar
    43   28   29 ar
    44   28   30 ar
    45   30   31 ar
    46   30   35 1
    47   31   32 ar
    48   32   33 ar
    49   32   34 1
    50   34   48 1
    51   34   49 1
    52   35   50 1
    53   35   51 1
@<TRIPOS>MOLECULE
CHEMBL428862
   55    57     0     0     0
SMALL
USER_CHARGES

@<TRIPOS>ATOM
      1 C1          0.6027    1.5059    0.0256 C.3       1 <0>        -0.1693
      2 C2          0.5978   -0.0011    0.0167 C.ar      1 <0>         0.0766
      3 C3          0.7711   -0.7002   -1.1492 C.ar      1 <0>        -0.1647
      4 C4          0.7631   -2.0894   -1.1308 C.ar      1 <0>         0.2399
      5 N1          0.5923   -2.7658   -0.0167 N.ar      1 <0>        -0.5004
      6 C5          0.4186   -2.1439    1.1496 C.ar      1 <0>         0.4016
      7 C6          0.4219   -0.7279    1.1996 C.ar      1 <0>        -0.2404
      8 C7          0.2403   -0.0941    2.4537 C.ar      1 <0>         0.5795
      9 N2          0.0801   -0.8575    3.5253 N.ar      1 <0>        -0.5818
     10 C8          0.0882   -2.1844    3.4357 C.ar      1 <0>         0.6981
     11 N3          0.2432   -2.8239    2.2916 N.ar      1 <0>        -0.5712
     12 N4         -0.0838   -2.9256    4.5891 N.pl3     1 <0>        -0.7825
     13 N5          0.2308    1.2796    2.5567 N.pl3     1 <0>        -0.8011
     14 C9          0.9696    0.0364   -2.4489 C.3       1 <0>         0.1661
     15 N6          2.3622    0.4797   -2.5512 N.pl3     1 <0>        -0.7494
     16 C10         2.7866    1.1855   -3.6715 C.ar      1 <0>         0.2092
     17 C11         1.8855    1.4751   -4.6925 C.ar      1 <0>        -0.2028
     18 C12         2.3024    2.1735   -5.8025 C.ar      1 <0>        -0.0196
     19 C13         3.6323    2.5922   -5.9043 C.ar      1 <0>        -0.1497
     20 C14         4.5347    2.2998   -4.8774 C.ar      1 <0>        -0.0377
     21 C15         4.1102    1.6060   -3.7673 C.ar      1 <0>        -0.1914
     22 C16         4.0827    3.3406   -7.0931 C.2       1 <0>         0.5438
     23 O1          3.2968    3.5939   -7.9857 O.2       1 <0>        -0.5557
     24 N7          5.3651    3.7437   -7.1897 N.am      1 <0>        -0.6753
     25 C17         5.8123    4.4869   -8.3703 C.3       1 <0>         0.0735
     26 C18         7.3181    4.2898   -8.5569 C.3       1 <0>        -0.0831
     27 C19         7.6049    2.8201   -8.8712 C.3       1 <0>        -0.1764
     28 C20         9.0880    2.6260   -9.0550 C.2       1 <0>         0.4901
     29 O2          9.8454    3.5750   -8.9448 O.co2     1 <0>        -0.6962
     30 O3          9.5305    1.5198   -9.3139 O.co2     1 <0>        -0.7193
     31 C21         5.5171    5.9528   -8.1827 C.2       1 <0>         0.4983
     32 O4          5.5125    6.4352   -7.0630 O.co2     1 <0>        -0.7007
     33 O5          5.2828    6.6562   -9.1506 O.co2     1 <0>        -0.6985
     34 H1          1.5940    1.8644    0.3030 H         1 <0>         0.1091
     35 H2          0.3472    1.8760   -0.9673 H         1 <0>         0.1107
     36 H3         -0.1295    1.8674    0.7476 H         1 <0>         0.1035
     37 H4          0.9004   -2.6280   -2.0567 H         1 <0>         0.1963
     38 H5         -0.2071   -2.4769    5.4402 H         1 <0>         0.4463
     39 H6         -0.0814   -3.8947    4.5477 H         1 <0>         0.4320
     40 H7         -0.4109    1.7180    3.1371 H         1 <0>         0.4296
     41 H8          0.8658    1.8084    2.0488 H         1 <0>         0.4382
     42 H9          0.7374   -0.6273   -3.2818 H         1 <0>         0.0843
     43 H10         0.3092    0.9030   -2.4798 H         1 <0>         0.0845
     44 H11         2.9882    0.2808   -1.8374 H         1 <0>         0.3967
     45 H12         0.8583    1.1511   -4.6135 H         1 <0>         0.1203
     46 H13         1.6030    2.3976   -6.5944 H         1 <0>         0.1360
     47 H14         5.5628    2.6217   -4.9533 H         1 <0>         0.1322
     48 H15         4.8057    1.3840   -2.9714 H         1 <0>         0.1217
     49 H16         5.9920    3.5416   -6.4776 H         1 <0>         0.3899
     50 H17         5.2859    4.1202   -9.2515 H         1 <0>         0.0785
     51 H18         7.6667    4.9123   -9.3810 H         1 <0>         0.0737
     52 H19         7.8378    4.5738   -7.6419 H         1 <0>         0.0599
     53 H20         7.2563    2.1976   -8.0472 H         1 <0>         0.0495
     54 H21         7.0852    2.5361   -9.7862 H         1 <0>         0.0531
     55 H22         0.2412   -3.7938    2.2786 H         1 <0>         0.4444
@<TRIPOS>BOND
     1    1    2 1
     2    1   34 1
     3    1   35 1
     4    1   36 1
     5    2    7 ar
     6    2    3 ar
     7    3    4 ar
     8    3   14 1
     9    4    5 ar
    10    4   37 1
    11    5    6 ar
    12    6   11 ar
    13    6    7 ar
    14    7    8 ar
    15    8    9 ar
    16    8   13 1
    17    9   10 ar
    18   10   11 ar
    19   10   12 1
    20   11   55 1
    21   12   38 1
    22   12   39 1
    23   13   40 1
    24   13   41 1
    25   14   15 1
    26   14   42 1
    27   14   43 1
    28   15   16 1
    29   15   44 1
    30   16   21 ar
    31   16   17 ar
    32   17   18 ar
    33   17   45 1
    34   18   19 ar
    35   18   46 1
    36   19   20 ar
    37   19   22 1
    38   20   21 ar
    39   20   47 1
    40   21   48 1
    41   22   23 2
    42   22   24 am
    43   24   25 1
    44   24   49 1
    45   25   26 1
    46   25   31 1
    47   25   50 1
    48   26   27 1
    49   26   51 1
    50   26   52 1
    51   27   28 1
    52   27   53 1
    53   27   54 1
    54   28   29 2
    55   28   30 1
    56   31   32 2
    57   31   33 1
@<TRIPOS>MOLECULE
CHEMBL428862__1
   54    56     0     0     0
SMALL
USER_CHARGES

@<TRIPOS>ATOM
      1 C1          0.6027    1.5059    0.0256 C.3       1 <0>        -0.1555
      2 C2          0.5978   -0.0011    0.0167 C.ar      1 <0>         0.0583
      3 C3          0.7711   -0.7002   -1.1492 C.ar      1 <0>        -0.2079
      4 C4          0.7631   -2.0894   -1.1308 C.ar      1 <0>         0.2110
      5 N1          0.5923   -2.7658   -0.0167 N.ar      1 <0>        -0.4924
      6 C5          0.4186   -2.1439    1.1496 C.ar      1 <0>         0.4128
      7 C6          0.4219   -0.7279    1.1996 C.ar      1 <0>        -0.2805
      8 C7          0.2403   -0.0941    2.4537 C.ar      1 <0>         0.5252
      9 N2          0.0801   -0.8575    3.5253 N.ar      1 <0>        -0.6207
     10 C8          0.0882   -2.1844    3.4357 C.ar      1 <0>         0.6212
     11 N3          0.2432   -2.8239    2.2916 N.ar      1 <0>        -0.5922
     12 N4         -0.0838   -2.9256    4.5891 N.pl3     1 <0>        -0.8143
     13 N5          0.2308    1.2796    2.5567 N.pl3     1 <0>        -0.8447
     14 C9          0.9696    0.0364   -2.4489 C.3       1 <0>         0.1762
     15 N6          2.3622    0.4797   -2.5512 N.pl3     1 <0>        -0.7437
     16 C10         2.7866    1.1855   -3.6715 C.ar      1 <0>         0.2224
     17 C11         1.8855    1.4751   -4.6925 C.ar      1 <0>        -0.2079
     18 C12         2.3024    2.1735   -5.8025 C.ar      1 <0>        -0.0176
     19 C13         3.6323    2.5922   -5.9043 C.ar      1 <0>        -0.1642
     20 C14         4.5347    2.2998   -4.8774 C.ar      1 <0>        -0.0362
     21 C15         4.1102    1.6060   -3.7673 C.ar      1 <0>        -0.1991
     22 C16         4.0827    3.3406   -7.0931 C.2       1 <0>         0.5487
     23 O1          3.2968    3.5939   -7.9857 O.2       1 <0>        -0.5600
     24 N7          5.3651    3.7437   -7.1897 N.am      1 <0>        -0.6788
     25 C17         5.8123    4.4869   -8.3703 C.3       1 <0>         0.0744
     26 C18         7.3181    4.2898   -8.5569 C.3       1 <0>        -0.0822
     27 C19         7.6049    2.8201   -8.8712 C.3       1 <0>        -0.1769
     28 C20         9.0880    2.6260   -9.0550 C.2       1 <0>         0.4910
     29 O2          9.8454    3.5750   -8.9448 O.co2     1 <0>        -0.6980
     30 O3          9.5305    1.5198   -9.3139 O.co2     1 <0>        -0.7199
     31 C21         5.5171    5.9528   -8.1827 C.2       1 <0>         0.4985
     32 O4          5.5125    6.4352   -7.0630 O.co2     1 <0>        -0.6995
     33 O5          5.2828    6.6562   -9.1506 O.co2     1 <0>        -0.7023
     34 H1          1.5940    1.8644    0.3030 H         1 <0>         0.0891
     35 H2          0.3472    1.8760   -0.9673 H         1 <0>         0.0897
     36 H3         -0.1295    1.8674    0.7476 H         1 <0>         0.0971
     37 H4          0.9004   -2.6280   -2.0567 H         1 <0>         0.1696
     38 H5         -0.2071   -2.4769    5.4402 H         1 <0>         0.4142
     39 H6         -0.0814   -3.8947    4.5477 H         1 <0>         0.4170
     40 H7         -0.4109    1.7180    3.1371 H         1 <0>         0.4093
     41 H8          0.8658    1.8084    2.0488 H         1 <0>         0.4204
     42 H9          0.7374   -0.6273   -3.2818 H         1 <0>         0.0729
     43 H10         0.3092    0.9030   -2.4798 H         1 <0>         0.0729
     44 H11         2.9882    0.2808   -1.8374 H         1 <0>         0.3975
     45 H12         0.8583    1.1511   -4.6135 H         1 <0>         0.1208
     46 H13         1.6030    2.3976   -6.5944 H         1 <0>         0.1326
     47 H14         5.5628    2.6217   -4.9533 H         1 <0>         0.1286
     48 H15         4.8057    1.3840   -2.9714 H         1 <0>         0.1209
     49 H16         5.9920    3.5416   -6.4776 H         1 <0>         0.3901
     50 H17         5.2859    4.1202   -9.2515 H         1 <0>         0.0771
     51 H18         7.6667    4.9123   -9.3810 H         1 <0>         0.0717
     52 H19         7.8378    4.5738   -7.6419 H         1 <0>         0.0595
     53 H20         7.2563    2.1976   -8.0472 H         1 <0>         0.0515
     54 H21         7.0852    2.5361   -9.7862 H         1 <0>         0.0526
@<TRIPOS>BOND
     1    1    2 1
     2    1   34 1
     3    1   35 1
     4    1   36 1
     5    2    7 ar
     6    2    3 ar
     7    3    4 ar
     8    3   14 1
     9    4    5 ar
    10    4   37 1
    11    5    6 ar
    12    6   11 ar
    13    6    7 ar
    14    7    8 ar
    15    8    9 ar
    16    8   13 1
    17    9   10 ar
    18   10   11 ar
    19   10   12 1
    20   12   38 1
    21   12   39 1
    22   13   40 1
    23   13   41 1
    24   14   15 1
    25   14   42 1
    26   14   43 1
    27   15   16 1
    28   15   44 1
    29   16   21 ar
    30   16   17 ar
    31   17   18 ar
    32   17   45 1
    33   18   19 ar
    34   18   46 1
    35   19   20 ar
    36   19   22 1
    37   20   21 ar
    38   20   47 1
    39   21   48 1
    40   22   23 2
    41   22   24 am
    42   24   25 1
    43   24   49 1
    44   25   26 1
    45   25   31 1
    46   25   50 1
    47   26   27 1
    48   26   51 1
    49   26   52 1
    50   27   28 1
    51   27   53 1
    52   27   54 1
    53   28   29 2
    54   28   30 1
    55   31   32 2
    56   31   33 1
@<TRIPOS>MOLECULE
CHEMBL428862__2
   55    57     0     0     0
SMALL
USER_CHARGES

@<TRIPOS>ATOM
      1 C1          0.6027    1.5059    0.0256 C.3       1 <0>        -0.1692
      2 C2          0.5978   -0.0011    0.0167 C.ar      1 <0>         0.0766
      3 C3          0.7711   -0.7002   -1.1492 C.ar      1 <0>        -0.1645
      4 C4          0.7631   -2.0894   -1.1308 C.ar      1 <0>         0.2397
      5 N1          0.5923   -2.7658   -0.0167 N.ar      1 <0>        -0.5005
      6 C5          0.4186   -2.1439    1.1496 C.ar      1 <0>         0.4015
      7 C6          0.4219   -0.7279    1.1996 C.ar      1 <0>        -0.2403
      8 C7          0.2403   -0.0941    2.4537 C.ar      1 <0>         0.5795
      9 N2          0.0801   -0.8575    3.5253 N.ar      1 <0>        -0.5818
     10 C8          0.0882   -2.1844    3.4357 C.ar      1 <0>         0.6981
     11 N3          0.2432   -2.8239    2.2916 N.ar      1 <0>        -0.5713
     12 N4         -0.0838   -2.9256    4.5891 N.pl3     1 <0>        -0.7826
     13 N5          0.2308    1.2796    2.5567 N.pl3     1 <0>        -0.8010
     14 C9          0.9696    0.0364   -2.4489 C.3       1 <0>         0.1662
     15 N6          2.3622    0.4797   -2.5512 N.pl3     1 <0>        -0.7497
     16 C10         2.7866    1.1855   -3.6715 C.ar      1 <0>         0.2081
     17 C11         1.8855    1.4751   -4.6925 C.ar      1 <0>        -0.2025
     18 C12         2.3024    2.1735   -5.8025 C.ar      1 <0>        -0.0200
     19 C13         3.6323    2.5922   -5.9043 C.ar      1 <0>        -0.1471
     20 C14         4.5347    2.2998   -4.8774 C.ar      1 <0>        -0.0387
     21 C15         4.1102    1.6060   -3.7673 C.ar      1 <0>        -0.1915
     22 C16         4.0827    3.3406   -7.0931 C.2       1 <0>         0.5507
     23 O1          3.2968    3.5939   -7.9857 O.2       1 <0>        -0.5571
     24 N7          5.3651    3.7437   -7.1897 N.am      1 <0>        -0.6758
     25 C17         5.8123    4.4869   -8.3703 C.3       1 <0>         0.0725
     26 C18         7.0300    5.3385   -8.0058 C.3       1 <0>        -0.0812
     27 C19         6.6205    6.4045   -6.9875 C.3       1 <0>        -0.1768
     28 C20         7.8199    7.2433   -6.6284 C.2       1 <0>         0.4899
     29 O2          8.9019    7.0101   -7.1396 O.co2     1 <0>        -0.6953
     30 O3          7.7082    8.1551   -5.8268 O.co2     1 <0>        -0.7205
     31 C21         6.1858    3.5178   -9.4623 C.2       1 <0>         0.4954
     32 O4          6.0875    2.3176   -9.2720 O.co2     1 <0>        -0.6987
     33 O5          6.5863    3.9341  -10.5360 O.co2     1 <0>        -0.6971
     34 H1          1.5940    1.8644    0.3030 H         1 <0>         0.1092
     35 H2          0.3472    1.8760   -0.9673 H         1 <0>         0.1106
     36 H3         -0.1295    1.8674    0.7476 H         1 <0>         0.1035
     37 H4          0.9004   -2.6280   -2.0567 H         1 <0>         0.1963
     38 H5         -0.2071   -2.4769    5.4402 H         1 <0>         0.4463
     39 H6         -0.0814   -3.8947    4.5477 H         1 <0>         0.4320
     40 H7         -0.4109    1.7180    3.1371 H         1 <0>         0.4296
     41 H8          0.8658    1.8084    2.0488 H         1 <0>         0.4382
     42 H9          0.7374   -0.6273   -3.2818 H         1 <0>         0.0843
     43 H10         0.3092    0.9030   -2.4798 H         1 <0>         0.0843
     44 H11         2.9882    0.2808   -1.8374 H         1 <0>         0.3965
     45 H12         0.8583    1.1511   -4.6135 H         1 <0>         0.1200
     46 H13         1.6030    2.3976   -6.5944 H         1 <0>         0.1358
     47 H14         5.5628    2.6217   -4.9533 H         1 <0>         0.1313
     48 H15         4.8057    1.3840   -2.9714 H         1 <0>         0.1212
     49 H16         5.9920    3.5416   -6.4776 H         1 <0>         0.3876
     50 H17         5.0074    5.1342   -8.7186 H         1 <0>         0.0785
     51 H18         7.8026    4.7019   -7.5745 H         1 <0>         0.0548
     52 H19         7.4167    5.8223   -8.9027 H         1 <0>         0.0802
     53 H20         5.8479    7.0411   -7.4188 H         1 <0>         0.0524
     54 H21         6.2338    5.9207   -6.0906 H         1 <0>         0.0483
     55 H22         0.2412   -3.7938    2.2786 H         1 <0>         0.4443
@<TRIPOS>BOND
     1    1    2 1
     2    1   34 1
     3    1   35 1
     4    1   36 1
     5    2    7 ar
     6    2    3 ar
     7    3    4 ar
     8    3   14 1
     9    4    5 ar
    10    4   37 1
    11    5    6 ar
    12    6   11 ar
    13    6    7 ar
    14    7    8 ar
    15    8    9 ar
    16    8   13 1
    17    9   10 ar
    18   10   11 ar
    19   10   12 1
    20   11   55 1
    21   12   38 1
    22   12   39 1
    23   13   40 1
    24   13   41 1
    25   14   15 1
    26   14   42 1
    27   14   43 1
    28   15   16 1
    29   15   44 1
    30   16   21 ar
    31   16   17 ar
    32   17   18 ar
    33   17   45 1
    34   18   19 ar
    35   18   46 1
    36   19   20 ar
    37   19   22 1
    38   20   21 ar
    39   20   47 1
    40   21   48 1
    41   22   23 2
    42   22   24 am
    43   24   25 1
    44   24   49 1
    45   25   26 1
    46   25   31 1
    47   25   50 1
    48   26   27 1
    49   26   51 1
    50   26   52 1
    51   27   28 1
    52   27   53 1
    53   27   54 1
    54   28   29 2
    55   28   30 1
    56   31   32 2
    57   31   33 1
@<TRIPOS>MOLECULE
CHEMBL428862__3
   54    56     0     0     0
SMALL
USER_CHARGES

@<TRIPOS>ATOM
      1 C1          0.6027    1.5059    0.0256 C.3       1 <0>        -0.1554
      2 C2          0.5978   -0.0011    0.0167 C.ar      1 <0>         0.0582
      3 C3          0.7711   -0.7002   -1.1492 C.ar      1 <0>        -0.2078
      4 C4          0.7631   -2.0894   -1.1308 C.ar      1 <0>         0.2109
      5 N1          0.5923   -2.7658   -0.0167 N.ar      1 <0>        -0.4926
      6 C5          0.4186   -2.1439    1.1496 C.ar      1 <0>         0.4127
      7 C6          0.4219   -0.7279    1.1996 C.ar      1 <0>        -0.2805
      8 C7          0.2403   -0.0941    2.4537 C.ar      1 <0>         0.5252
      9 N2          0.0801   -0.8575    3.5253 N.ar      1 <0>        -0.6207
     10 C8          0.0882   -2.1844    3.4357 C.ar      1 <0>         0.6212
     11 N3          0.2432   -2.8239    2.2916 N.ar      1 <0>        -0.5923
     12 N4         -0.0838   -2.9256    4.5891 N.pl3     1 <0>        -0.8144
     13 N5          0.2308    1.2796    2.5567 N.pl3     1 <0>        -0.8446
     14 C9          0.9696    0.0364   -2.4489 C.3       1 <0>         0.1763
     15 N6          2.3622    0.4797   -2.5512 N.pl3     1 <0>        -0.7440
     16 C10         2.7866    1.1855   -3.6715 C.ar      1 <0>         0.2213
     17 C11         1.8855    1.4751   -4.6925 C.ar      1 <0>        -0.2076
     18 C12         2.3024    2.1735   -5.8025 C.ar      1 <0>        -0.0180
     19 C13         3.6323    2.5922   -5.9043 C.ar      1 <0>        -0.1616
     20 C14         4.5347    2.2998   -4.8774 C.ar      1 <0>        -0.0372
     21 C15         4.1102    1.6060   -3.7673 C.ar      1 <0>        -0.1992
     22 C16         4.0827    3.3406   -7.0931 C.2       1 <0>         0.5556
     23 O1          3.2968    3.5939   -7.9857 O.2       1 <0>        -0.5615
     24 N7          5.3651    3.7437   -7.1897 N.am      1 <0>        -0.6793
     25 C17         5.8123    4.4869   -8.3703 C.3       1 <0>         0.0734
     26 C18         7.0300    5.3385   -8.0058 C.3       1 <0>        -0.0803
     27 C19         6.6205    6.4045   -6.9875 C.3       1 <0>        -0.1773
     28 C20         7.8199    7.2433   -6.6284 C.2       1 <0>         0.4908
     29 O2          8.9019    7.0101   -7.1396 O.co2     1 <0>        -0.6972
     30 O3          7.7082    8.1551   -5.8268 O.co2     1 <0>        -0.7210
     31 C21         6.1858    3.5178   -9.4623 C.2       1 <0>         0.4953
     32 O4          6.0875    2.3176   -9.2720 O.co2     1 <0>        -0.6968
     33 O5          6.5863    3.9341  -10.5360 O.co2     1 <0>        -0.7015
     34 H1          1.5940    1.8644    0.3030 H         1 <0>         0.0892
     35 H2          0.3472    1.8760   -0.9673 H         1 <0>         0.0897
     36 H3         -0.1295    1.8674    0.7476 H         1 <0>         0.0970
     37 H4          0.9004   -2.6280   -2.0567 H         1 <0>         0.1696
     38 H5         -0.2071   -2.4769    5.4402 H         1 <0>         0.4142
     39 H6         -0.0814   -3.8947    4.5477 H         1 <0>         0.4169
     40 H7         -0.4109    1.7180    3.1371 H         1 <0>         0.4093
     41 H8          0.8658    1.8084    2.0488 H         1 <0>         0.4205
     42 H9          0.7374   -0.6273   -3.2818 H         1 <0>         0.0729
     43 H10         0.3092    0.9030   -2.4798 H         1 <0>         0.0727
     44 H11         2.9882    0.2808   -1.8374 H         1 <0>         0.3973
     45 H12         0.8583    1.1511   -4.6135 H         1 <0>         0.1205
     46 H13         1.6030    2.3976   -6.5944 H         1 <0>         0.1323
     47 H14         5.5628    2.6217   -4.9533 H         1 <0>         0.1276
     48 H15         4.8057    1.3840   -2.9714 H         1 <0>         0.1203
     49 H16         5.9920    3.5416   -6.4776 H         1 <0>         0.3879
     50 H17         5.0074    5.1342   -8.7186 H         1 <0>         0.0771
     51 H18         7.8026    4.7019   -7.5745 H         1 <0>         0.0544
     52 H19         7.4167    5.8223   -8.9027 H         1 <0>         0.0783
     53 H20         5.8479    7.0411   -7.4188 H         1 <0>         0.0520
     54 H21         6.2338    5.9207   -6.0906 H         1 <0>         0.0503
@<TRIPOS>BOND
     1    1    2 1
     2    1   34 1
     3    1   35 1
     4    1   36 1
     5    2    7 ar
     6    2    3 ar
     7    3    4 ar
     8    3   14 1
     9    4    5 ar
    10    4   37 1
    11    5    6 ar
    12    6   11 ar
    13    6    7 ar
    14    7    8 ar
    15    8    9 ar
    16    8   13 1
    17    9   10 ar
    18   10   11 ar
    19   10   12 1
    20   12   38 1
    21   12   39 1
    22   13   40 1
    23   13   41 1
    24   14   15 1
    25   14   42 1
    26   14   43 1
    27   15   16 1
    28   15   44 1
    29   16   21 ar
    30   16   17 ar
    31   17   18 ar
    32   17   45 1
    33   18   19 ar
    34   18   46 1
    35   19   20 ar
    36   19   22 1
    37   20   21 ar
    38   20   47 1
    39   21   48 1
    40   22   23 2
    41   22   24 am
    42   24   25 1
    43   24   49 1
    44   25   26 1
    45   25   31 1
    46   25   50 1
    47   26   27 1
    48   26   51 1
    49   26   52 1
    50   27   28 1
    51   27   53 1
    52   27   54 1
    53   28   29 2
    54   28   30 1
    55   31   32 2
    56   31   33 1
@<TRIPOS>MOLECULE
CHEMBL439973
   52    54     0     0     0
SMALL
USER_CHARGES

@<TRIPOS>ATOM
      1 C1          0.4859    1.4945   -0.0754 C.3       1 <0>        -0.1166
      2 C2          0.4140   -0.0108   -0.0679 C.ar      1 <0>         0.2793
      3 C3          0.0912   -0.7139   -1.2277 C.ar      1 <0>        -0.2525
      4 C4         -0.2342   -0.3446   -2.6061 C.2       1 <0>        -0.1130
      5 C5         -0.4560   -1.4880   -3.2727 C.2       1 <0>         0.0321
      6 N1         -0.2980   -2.5585   -2.4292 N.pl3     1 <0>        -0.5753
      7 C6          0.0355   -2.1227   -1.1761 C.ar      1 <0>         0.3645
      8 N2          0.2933   -2.7275   -0.0206 N.ar      1 <0>        -0.6007
      9 C7          0.5949   -2.0190    1.0542 C.ar      1 <0>         0.5900
     10 N3          0.6610   -0.6929    1.0374 N.ar      1 <0>        -0.5826
     11 N4          0.8574   -2.6850    2.2403 N.pl3     1 <0>        -0.8251
     12 C8         -0.3069    1.0516   -3.1686 C.3       1 <0>        -0.0484
     13 C9          1.1048    1.5452   -3.4919 C.3       1 <0>        -0.0707
     14 C10         1.0321    2.9414   -4.0544 C.ar      1 <0>        -0.0772
     15 C11         0.8974    3.1281   -5.4187 C.ar      1 <0>        -0.1280
     16 C12         0.8303    4.4036   -5.9402 C.ar      1 <0>        -0.0642
     17 C13         0.8987    5.5070   -5.0881 C.ar      1 <0>        -0.1108
     18 C14         1.0346    5.3116   -3.7128 C.ar      1 <0>        -0.0820
     19 C15         1.0948    4.0308   -3.2038 C.ar      1 <0>        -0.1237
     20 C16         0.8279    6.8767   -5.6401 C.2       1 <0>         0.5427
     21 O1          0.7099    7.0438   -6.8382 O.2       1 <0>        -0.5537
     22 N5          0.8942    7.9401   -4.8147 N.am      1 <0>        -0.6751
     23 C17         0.8241    9.2974   -5.3616 C.3       1 <0>         0.0736
     24 H1          0.1490    9.3099   -6.2172 H         1 <0>         0.0778
     25 C18         0.3033   10.2540   -4.2870 C.3       1 <0>        -0.0825
     26 C19        -1.1386    9.8857   -3.9318 C.3       1 <0>        -0.1771
     27 C20        -1.6515   10.8279   -2.8734 C.2       1 <0>         0.4911
     28 O2         -0.9306   11.7120   -2.4430 O.co2     1 <0>        -0.6976
     29 O3         -2.7874   10.7061   -2.4475 O.co2     1 <0>        -0.7195
     30 C21         2.1983    9.7341   -5.7996 C.2       1 <0>         0.4983
     31 O4          2.3228   10.5172   -6.7257 O.co2     1 <0>        -0.7011
     32 O5          3.1857    9.3043   -5.2278 O.co2     1 <0>        -0.6987
     33 H2          1.4683    1.8095   -0.4269 H         1 <0>         0.0918
     34 H3         -0.2821    1.8916   -0.7393 H         1 <0>         0.0906
     35 H4          0.3233    1.8710    0.9345 H         1 <0>         0.0838
     36 H5         -0.7200   -1.5555   -4.3177 H         1 <0>         0.1792
     37 H6          0.8180   -3.6537    2.2715 H         1 <0>         0.4105
     38 H7          1.0805   -2.1827    3.0395 H         1 <0>         0.4146
     39 H8         -0.9071    1.0460   -4.0784 H         1 <0>         0.0774
     40 H9         -0.7649    1.7154   -2.4353 H         1 <0>         0.0801
     41 H10         1.7050    1.5509   -2.5821 H         1 <0>         0.0721
     42 H11         1.5627    0.8814   -4.2252 H         1 <0>         0.0713
     43 H12         0.8450    2.2735   -6.0769 H         1 <0>         0.1216
     44 H13         0.7255    4.5480   -7.0053 H         1 <0>         0.1328
     45 H14         1.0881    6.1612   -3.0482 H         1 <0>         0.1295
     46 H15         1.1956    3.8782   -2.1394 H         1 <0>         0.1243
     47 H16         0.9884    7.8068   -3.8585 H         1 <0>         0.3915
     48 H17         0.9280   10.1756   -3.3972 H         1 <0>         0.0603
     49 H18         0.3349   11.2761   -4.6643 H         1 <0>         0.0726
     50 H19        -1.7633    9.9640   -4.8216 H         1 <0>         0.0526
     51 H20        -1.1701    8.8636   -3.5545 H         1 <0>         0.0513
     52 H21        -0.4072   -3.4880   -2.6840 H         1 <0>         0.4185
@<TRIPOS>BOND
     1    1    2 1
     2    1   33 1
     3    1   34 1
     4    1   35 1
     5    2   10 ar
     6    2    3 ar
     7    3    7 ar
     8    3    4 1
     9    4    5 2
    10    4   12 1
    11    5    6 1
    12    5   36 1
    13    6    7 1
    14    6   52 1
    15    7    8 ar
    16    8    9 ar
    17    9   10 ar
    18    9   11 1
    19   11   37 1
    20   11   38 1
    21   12   13 1
    22   12   39 1
    23   12   40 1
    24   13   14 1
    25   13   41 1
    26   13   42 1
    27   14   19 ar
    28   14   15 ar
    29   15   16 ar
    30   15   43 1
    31   16   17 ar
    32   16   44 1
    33   17   18 ar
    34   17   20 1
    35   18   19 ar
    36   18   45 1
    37   19   46 1
    38   20   21 2
    39   20   22 am
    40   22   23 1
    41   22   47 1
    42   23   24 1
    43   23   25 1
    44   23   30 1
    45   25   26 1
    46   25   48 1
    47   25   49 1
    48   26   27 1
    49   26   50 1
    50   26   51 1
    51   27   28 2
    52   27   29 1
    53   30   31 2
    54   30   32 1
@<TRIPOS>MOLECULE
CHEMBL35020
   45    47     0     0     0
SMALL
USER_CHARGES

@<TRIPOS>ATOM
      1 C1         -0.0173    1.4248    0.0099 C.3       1 <0>         0.0254
      2 O1          0.0021   -0.0041    0.0020 O.3       1 <0>        -0.3109
      3 C2          0.6256   -0.6182    1.0411 C.ar      1 <0>         0.1387
      4 C3          1.2017    0.1430    2.0505 C.ar      1 <0>        -0.2021
      5 C4          1.8347   -0.4753    3.1065 C.ar      1 <0>        -0.0601
      6 C5          1.8968   -1.8708    3.1613 C.ar      1 <0>         0.0019
      7 C6          1.3157   -2.6323    2.1435 C.ar      1 <0>        -0.0598
      8 C7          0.6800   -2.0049    1.0939 C.ar      1 <0>        -0.1092
      9 C8          0.0477   -2.8248   -0.0010 C.3       1 <0>        -0.0052
     10 C9          1.0202   -2.9737   -1.1426 C.ar      1 <0>        -0.3007
     11 C10         0.9833   -2.1093   -2.2193 C.ar      1 <0>         0.2272
     12 N1          1.8523   -2.2666   -3.2069 N.ar      1 <0>        -0.6092
     13 C11         2.7521   -3.2386   -3.1740 C.ar      1 <0>         0.5979
     14 N2          2.8203   -4.0883   -2.1603 N.ar      1 <0>        -0.6287
     15 C12         1.9829   -3.9852   -1.1331 C.ar      1 <0>         0.4865
     16 N3          2.0604   -4.8718   -0.0715 N.pl3     1 <0>        -0.8339
     17 N4          3.6426   -3.3696   -4.2252 N.pl3     1 <0>        -0.8247
     18 C13         2.5540   -2.5181    4.2566 C.1       1 <0>        -0.1584
     19 C14         3.0928   -3.0488    5.1546 C.1       1 <0>        -0.0763
     20 C15         3.7501   -3.6961    6.2499 C.ar      1 <0>        -0.0254
     21 C16         4.3269   -2.9338    7.2709 C.ar      1 <0>        -0.0992
     22 C17         4.9608   -3.5562    8.3274 C.ar      1 <0>        -0.1406
     23 C18         5.0311   -4.9340    8.3847 C.ar      1 <0>        -0.0697
     24 C19         4.4597   -5.7093    7.3714 C.ar      1 <0>        -0.1354
     25 C20         3.8117   -5.0881    6.3042 C.ar      1 <0>        -0.0523
     26 C21         4.5364   -7.1817    7.4344 C.2       1 <0>         0.5206
     27 O2          5.1002   -7.7250    8.3737 O.co2     1 <0>        -0.6845
     28 O3          4.0361   -7.8585    6.5472 O.co2     1 <0>        -0.6844
     29 H1          1.0053    1.8021    0.0021 H         1 <0>         0.0551
     30 H2         -0.5445    1.7859   -0.8732 H         1 <0>         0.1006
     31 H3         -0.5275    1.7763    0.9067 H         1 <0>         0.0564
     32 H4          1.1536    1.2210    2.0071 H         1 <0>         0.1328
     33 H5          2.2826    0.1173    3.8905 H         1 <0>         0.1305
     34 H6          1.3615   -3.7106    2.1814 H         1 <0>         0.1267
     35 H7         -0.2115   -3.8101    0.3864 H         1 <0>         0.0734
     36 H8         -0.8540   -2.3248   -0.3548 H         1 <0>         0.0902
     37 H9          0.2535   -1.3140   -2.2559 H         1 <0>         0.1656
     38 H10         1.4432   -4.7926    0.6726 H         1 <0>         0.4102
     39 H11         2.7320   -5.5717   -0.0721 H         1 <0>         0.4064
     40 H12         3.6031   -2.7540   -4.9739 H         1 <0>         0.4131
     41 H13         4.3063   -4.0769   -4.2134 H         1 <0>         0.4114
     42 H14         4.2764   -1.8556    7.2325 H         1 <0>         0.1170
     43 H15         5.4044   -2.9624    9.1130 H         1 <0>         0.1211
     44 H16         5.5291   -5.4139    9.2143 H         1 <0>         0.1308
     45 H17         3.3643   -5.6821    5.5210 H         1 <0>         0.1312
@<TRIPOS>BOND
     1    1    2 1
     2    1   29 1
     3    1   30 1
     4    1   31 1
     5    2    3 1
     6    3    8 ar
     7    3    4 ar
     8    4    5 ar
     9    4   32 1
    10    5    6 ar
    11    5   33 1
    12    6    7 ar
    13    6   18 1
    14    7    8 ar
    15    7   34 1
    16    8    9 1
    17    9   10 1
    18    9   35 1
    19    9   36 1
    20   10   15 ar
    21   10   11 ar
    22   11   12 ar
    23   11   37 1
    24   12   13 ar
    25   13   14 ar
    26   13   17 1
    27   14   15 ar
    28   15   16 1
    29   16   38 1
    30   16   39 1
    31   17   40 1
    32   17   41 1
    33   18   19 3
    34   19   20 1
    35   20   25 ar
    36   20   21 ar
    37   21   22 ar
    38   21   42 1
    39   22   23 ar
    40   22   43 1
    41   23   24 ar
    42   23   44 1
    43   24   25 ar
    44   24   26 1
    45   25   45 1
    46   26   27 2
    47   26   28 1
@<TRIPOS>MOLECULE
CHEMBL35020__1
   46    48     0     0     0
SMALL
USER_CHARGES

@<TRIPOS>ATOM
      1 C1         -0.0173    1.4248    0.0099 C.3       1 <0>         0.0222
      2 O1          0.0021   -0.0041    0.0020 O.3       1 <0>        -0.3227
      3 C2          0.6056   -0.6069   -1.0553 C.ar      1 <0>         0.1351
      4 C3          1.1725    0.1652   -2.0616 C.ar      1 <0>        -0.1947
      5 C4          1.7860   -0.4416   -3.1356 C.ar      1 <0>        -0.0519
      6 C5          1.8375   -1.8366   -3.2118 C.ar      1 <0>         0.0228
      7 C6          1.2657   -2.6091   -2.1971 C.ar      1 <0>        -0.0644
      8 C7          0.6589   -1.9930   -1.1240 C.ar      1 <0>        -0.1311
      9 C8          0.0474   -2.8247   -0.0261 C.3       1 <0>        -0.0194
     10 C9         -1.4232   -3.0115   -0.2971 C.ar      1 <0>        -0.2152
     11 C10        -2.3587   -2.1683    0.2702 C.ar      1 <0>         0.2081
     12 N1         -3.6441   -2.3588    0.0118 N.ar      1 <0>        -0.5711
     13 C11        -4.0408   -3.3442   -0.7801 C.ar      1 <0>         0.6592
     14 N2         -3.1760   -4.1744   -1.3430 N.ar      1 <0>        -0.5739
     15 C12        -1.8707   -4.0374   -1.1321 C.ar      1 <0>         0.5343
     16 N3         -0.9680   -4.9037   -1.7269 N.pl3     1 <0>        -0.7733
     17 N4         -5.3928   -3.5103   -1.0250 N.pl3     1 <0>        -0.7962
     18 C13         2.4736   -2.4720   -4.3264 C.1       1 <0>        -0.1904
     19 C14         2.9952   -2.9929   -5.2401 C.1       1 <0>        -0.0417
     20 C15         3.6313   -3.6284   -6.3547 C.ar      1 <0>        -0.0406
     21 C16         4.2080   -2.8549   -7.3673 C.ar      1 <0>        -0.0966
     22 C17         4.8216   -3.4658   -8.4424 C.ar      1 <0>        -0.1395
     23 C18         4.8706   -4.8431   -8.5271 C.ar      1 <0>        -0.0632
     24 C19         4.2983   -5.6296   -7.5229 C.ar      1 <0>        -0.1338
     25 C20         3.6825   -5.0198   -6.4303 C.ar      1 <0>        -0.0493
     26 C21         4.3514   -7.1014   -7.6156 C.2       1 <0>         0.5191
     27 O2          4.8966   -7.6345   -8.5717 O.co2     1 <0>        -0.6796
     28 O3          3.8503   -7.7879   -6.7364 O.co2     1 <0>        -0.6840
     29 H1          1.0053    1.8021    0.0021 H         1 <0>         0.0632
     30 H2         -0.5445    1.7859   -0.8732 H         1 <0>         0.0579
     31 H3         -0.5275    1.7763    0.9067 H         1 <0>         0.1040
     32 H4          1.1319    1.2428   -2.0020 H         1 <0>         0.1378
     33 H5          2.2261    0.1594   -3.9175 H         1 <0>         0.1363
     34 H6          1.3027   -3.6871   -2.2519 H         1 <0>         0.1284
     35 H7          0.5371   -3.7979    0.0081 H         1 <0>         0.0964
     36 H8          0.1792   -2.3179    0.9299 H         1 <0>         0.1123
     37 H9         -2.0457   -1.3626    0.9177 H         1 <0>         0.2153
     38 H10        -0.0173   -4.8001   -1.5645 H         1 <0>         0.4305
     39 H11        -1.2866   -5.6140   -2.3057 H         1 <0>         0.4294
     40 H12        -6.0367   -2.9093   -0.6186 H         1 <0>         0.4285
     41 H13        -5.6965   -4.2277   -1.6029 H         1 <0>         0.4436
     42 H14         4.1728   -1.7771   -7.3082 H         1 <0>         0.1171
     43 H15         5.2651   -2.8635   -9.2214 H         1 <0>         0.1237
     44 H16         5.3521   -5.3140   -9.3714 H         1 <0>         0.1337
     45 H17         3.2428   -5.6223   -5.6492 H         1 <0>         0.1316
     46 H18        -4.3040   -1.7688    0.4084 H         1 <0>         0.4420
@<TRIPOS>BOND
     1    1    2 1
     2    1   29 1
     3    1   30 1
     4    1   31 1
     5    2    3 1
     6    3    8 ar
     7    3    4 ar
     8    4    5 ar
     9    4   32 1
    10    5    6 ar
    11    5   33 1
    12    6    7 ar
    13    6   18 1
    14    7    8 ar
    15    7   34 1
    16    8    9 1
    17    9   10 1
    18    9   35 1
    19    9   36 1
    20   10   15 ar
    21   10   11 ar
    22   11   12 ar
    23   11   37 1
    24   12   13 ar
    25   12   46 1
    26   13   14 ar
    27   13   17 1
    28   14   15 ar
    29   15   16 1
    30   16   38 1
    31   16   39 1
    32   17   40 1
    33   17   41 1
    34   18   19 3
    35   19   20 1
    36   20   25 ar
    37   20   21 ar
    38   21   22 ar
    39   21   42 1
    40   22   23 ar
    41   22   43 1
    42   23   24 ar
    43   23   44 1
    44   24   25 ar
    45   24   26 1
    46   25   45 1
    47   26   27 2
    48   26   28 1
@<TRIPOS>MOLECULE
CHEMBL354249
   60    62     0     0     0
SMALL
USER_CHARGES

@<TRIPOS>ATOM
      1 C1         -0.0187    1.5258    0.0104 C.3       1 <0>        -0.1366
      2 C2          0.0021   -0.0041    0.0020 C.3       1 <0>         0.0937
      3 C3          0.7421   -0.5109    1.2415 C.3       1 <0>        -0.0676
      4 C4          0.0259   -0.0175    2.5003 C.3       1 <0>        -0.1836
      5 C5          0.7548   -0.5167    3.7212 C.2       1 <0>         0.4913
      6 O1          1.7544   -1.2035    3.5961 O.co2     1 <0>        -0.7168
      7 O2          0.3449   -0.2338    4.8341 O.co2     1 <0>        -0.7176
      8 C6         -1.4117   -0.5257    0.0127 C.2       1 <0>         0.5084
      9 O3         -1.8097   -1.2271   -0.9017 O.co2     1 <0>        -0.6931
     10 O4         -2.1576   -0.2463    0.9358 O.co2     1 <0>        -0.6825
     11 N1          0.6878   -0.4765   -1.2033 N.am      1 <0>        -0.6899
     12 C7          0.2113   -0.1507   -2.4212 C.2       1 <0>         0.5489
     13 O5         -0.7874    0.5352   -2.5195 O.2       1 <0>        -0.5194
     14 C8          0.9033   -0.6275   -3.6376 C.ar      1 <0>        -0.0962
     15 C9          2.0470   -1.4200   -3.5282 C.ar      1 <0>        -0.0890
     16 C10         2.6877   -1.8620   -4.6672 C.ar      1 <0>        -0.1243
     17 C11         2.1992   -1.5209   -5.9159 C.ar      1 <0>        -0.0932
     18 C12         1.0662   -0.7352   -6.0314 C.ar      1 <0>        -0.1258
     19 C13         0.4124   -0.2918   -4.9003 C.ar      1 <0>        -0.0643
     20 C14         2.9046   -2.0070   -7.1558 C.3       1 <0>        -0.0750
     21 C15         2.3218   -3.3572   -7.5779 C.3       1 <0>        -0.1124
     22 C16         3.0379   -3.8506   -8.8367 C.3       1 <0>        -0.1037
     23 C17         2.3855   -5.1457   -9.3231 C.3       1 <0>        -0.0596
     24 C18         3.2110   -5.7689  -10.4140 C.ar      1 <0>        -0.3047
     25 C19         2.6283   -6.6904  -11.2815 C.ar      1 <0>         0.5399
     26 N2          3.3735   -7.2355  -12.2402 N.ar      1 <0>        -0.5917
     27 C20         4.6510   -6.9122  -12.3736 C.ar      1 <0>         0.6793
     28 N3          5.2363   -6.0399  -11.5669 N.ar      1 <0>        -0.6010
     29 C21         4.5501   -5.4539  -10.5871 C.ar      1 <0>         0.5020
     30 N4          5.1786   -4.5363   -9.7584 N.pl3     1 <0>        -0.6955
     31 C22         4.5118   -4.1291   -8.5139 C.3       1 <0>         0.1114
     32 N5          5.3937   -7.5015  -13.3817 N.pl3     1 <0>        -0.7995
     33 N6          1.2923   -7.0347  -11.1478 N.pl3     1 <0>        -0.7870
     34 H1          1.0039    1.9031    0.0027 H         1 <0>         0.0323
     35 H2         -0.5459    1.8868   -0.8726 H         1 <0>         0.0598
     36 H3         -0.5289    1.8773    0.9072 H         1 <0>         0.0694
     37 H4          0.7568   -1.6008    1.2356 H         1 <0>         0.0504
     38 H5          1.7647   -0.1336    1.2338 H         1 <0>         0.0439
     39 H6          0.0111    1.0724    2.5063 H         1 <0>         0.0501
     40 H7         -0.9967   -0.3948    2.5081 H         1 <0>         0.1031
     41 H8          1.4848   -1.0239   -1.1249 H         1 <0>         0.3817
     42 H9          2.4297   -1.6864   -2.5540 H         1 <0>         0.1288
     43 H10         3.5727   -2.4754   -4.5839 H         1 <0>         0.1200
     44 H11         0.6902   -0.4722   -7.0090 H         1 <0>         0.1200
     45 H12        -0.4746    0.3174   -4.9918 H         1 <0>         0.1355
     46 H13         2.7658   -1.2840   -7.9597 H         1 <0>         0.0720
     47 H14         3.9686   -2.1195   -6.9480 H         1 <0>         0.0692
     48 H15         2.4605   -4.0801   -6.7740 H         1 <0>         0.0774
     49 H16         1.2577   -3.2447   -7.7858 H         1 <0>         0.0815
     50 H17         2.9719   -3.0912   -9.6158 H         1 <0>         0.0896
     51 H18         2.3032   -5.8433   -8.4897 H         1 <0>         0.0926
     52 H19         1.3888   -4.9258   -9.7058 H         1 <0>         0.0906
     53 H20         6.0445   -4.1694   -9.9964 H         1 <0>         0.4204
     54 H21         4.9805   -3.2262   -8.1227 H         1 <0>         0.1158
     55 H22         4.5830   -4.9306   -7.7786 H         1 <0>         0.0927
     56 H23         4.9777   -8.1423  -13.9794 H         1 <0>         0.4430
     57 H24         6.3303   -7.2738  -13.4906 H         1 <0>         0.4263
     58 H25         0.7558   -6.6333  -10.4464 H         1 <0>         0.4308
     59 H26         0.8938   -7.6771  -11.7557 H         1 <0>         0.4243
     60 H27         6.1740   -5.8253  -11.6912 H         1 <0>         0.4341
@<TRIPOS>BOND
     1    1    2 1
     2    1   34 1
     3    1   35 1
     4    1   36 1
     5    2    3 1
     6    2    8 1
     7    2   11 1
     8    3    4 1
     9    3   37 1
    10    3   38 1
    11    4    5 1
    12    4   39 1
    13    4   40 1
    14    5    6 2
    15    5    7 1
    16    8    9 2
    17    8   10 1
    18   11   12 am
    19   11   41 1
    20   12   13 2
    21   12   14 1
    22   14   19 ar
    23   14   15 ar
    24   15   16 ar
    25   15   42 1
    26   16   17 ar
    27   16   43 1
    28   17   18 ar
    29   17   20 1
    30   18   19 ar
    31   18   44 1
    32   19   45 1
    33   20   21 1
    34   20   46 1
    35   20   47 1
    36   21   22 1
    37   21   48 1
    38   21   49 1
    39   22   31 1
    40   22   23 1
    41   22   50 1
    42   23   24 1
    43   23   51 1
    44   23   52 1
    45   24   29 ar
    46   24   25 ar
    47   25   26 ar
    48   25   33 1
    49   26   27 ar
    50   27   28 ar
    51   27   32 1
    52   28   29 ar
    53   28   60 1
    54   29   30 1
    55   30   31 1
    56   30   53 1
    57   31   54 1
    58   31   55 1
    59   32   56 1
    60   32   57 1
    61   33   58 1
    62   33   59 1
@<TRIPOS>MOLECULE
CHEMBL354249__1
   59    61     0     0     0
SMALL
USER_CHARGES

@<TRIPOS>ATOM
      1 C1         -0.0187    1.5258    0.0104 C.3       1 <0>        -0.1360
      2 C2          0.0021   -0.0041    0.0020 C.3       1 <0>         0.0942
      3 C3          0.7421   -0.5109    1.2415 C.3       1 <0>        -0.0680
      4 C4          0.0259   -0.0175    2.5003 C.3       1 <0>        -0.1829
      5 C5          0.7548   -0.5167    3.7212 C.2       1 <0>         0.4914
      6 O1          1.7544   -1.2035    3.5961 O.co2     1 <0>        -0.7157
      7 O2          0.3449   -0.2338    4.8341 O.co2     1 <0>        -0.7203
      8 C6         -1.4117   -0.5257    0.0127 C.2       1 <0>         0.5083
      9 O3         -1.8097   -1.2271   -0.9017 O.co2     1 <0>        -0.6906
     10 O4         -2.1576   -0.2463    0.9358 O.co2     1 <0>        -0.6863
     11 N1          0.6878   -0.4765   -1.2033 N.am      1 <0>        -0.6922
     12 C7          0.2113   -0.1507   -2.4212 C.2       1 <0>         0.5528
     13 O5         -0.7874    0.5352   -2.5195 O.2       1 <0>        -0.5231
     14 C8          0.9033   -0.6275   -3.6376 C.ar      1 <0>        -0.1050
     15 C9          2.0470   -1.4200   -3.5282 C.ar      1 <0>        -0.0891
     16 C10         2.6877   -1.8620   -4.6672 C.ar      1 <0>        -0.1251
     17 C11         2.1992   -1.5209   -5.9159 C.ar      1 <0>        -0.0817
     18 C12         1.0662   -0.7352   -6.0314 C.ar      1 <0>        -0.1276
     19 C13         0.4124   -0.2918   -4.9003 C.ar      1 <0>        -0.0647
     20 C14         2.9046   -2.0070   -7.1558 C.3       1 <0>        -0.0774
     21 C15         2.3218   -3.3572   -7.5779 C.3       1 <0>        -0.1088
     22 C16         3.0379   -3.8506   -8.8367 C.3       1 <0>        -0.1006
     23 C17         2.3855   -5.1457   -9.3231 C.3       1 <0>        -0.0424
     24 C18         3.2110   -5.7689  -10.4140 C.ar      1 <0>        -0.3601
     25 C19         2.6283   -6.6904  -11.2815 C.ar      1 <0>         0.4975
     26 N2          3.3735   -7.2355  -12.2402 N.ar      1 <0>        -0.6561
     27 C20         4.6510   -6.9122  -12.3736 C.ar      1 <0>         0.6283
     28 N3          5.2363   -6.0399  -11.5669 N.ar      1 <0>        -0.6537
     29 C21         4.5501   -5.4539  -10.5871 C.ar      1 <0>         0.4985
     30 N4          5.1786   -4.5363   -9.7584 N.pl3     1 <0>        -0.7158
     31 C22         4.5118   -4.1291   -8.5139 C.3       1 <0>         0.1267
     32 N5          5.3937   -7.5015  -13.3817 N.pl3     1 <0>        -0.8258
     33 N6          1.2923   -7.0347  -11.1478 N.pl3     1 <0>        -0.8371
     34 H1          1.0039    1.9031    0.0027 H         1 <0>         0.0319
     35 H2         -0.5459    1.8868   -0.8726 H         1 <0>         0.0600
     36 H3         -0.5289    1.8773    0.9072 H         1 <0>         0.0676
     37 H4          0.7568   -1.6008    1.2356 H         1 <0>         0.0506
     38 H5          1.7647   -0.1336    1.2338 H         1 <0>         0.0438
     39 H6          0.0111    1.0724    2.5063 H         1 <0>         0.0495
     40 H7         -0.9967   -0.3948    2.5081 H         1 <0>         0.1030
     41 H8          1.4848   -1.0239   -1.1249 H         1 <0>         0.3823
     42 H9          2.4297   -1.6864   -2.5540 H         1 <0>         0.1268
     43 H10         3.5727   -2.4754   -4.5839 H         1 <0>         0.1214
     44 H11         0.6902   -0.4722   -7.0090 H         1 <0>         0.1203
     45 H12        -0.4746    0.3174   -4.9918 H         1 <0>         0.1332
     46 H13         2.7658   -1.2840   -7.9597 H         1 <0>         0.0704
     47 H14         3.9686   -2.1195   -6.9480 H         1 <0>         0.0710
     48 H15         2.4605   -4.0801   -6.7740 H         1 <0>         0.0708
     49 H16         1.2577   -3.2447   -7.7858 H         1 <0>         0.0723
     50 H17         2.9719   -3.0912   -9.6158 H         1 <0>         0.0787
     51 H18         2.3032   -5.8433   -8.4897 H         1 <0>         0.0662
     52 H19         1.3888   -4.9258   -9.7058 H         1 <0>         0.0659
     53 H20         6.0445   -4.1694   -9.9964 H         1 <0>         0.4069
     54 H21         4.9805   -3.2262   -8.1227 H         1 <0>         0.0907
     55 H22         4.5830   -4.9306   -7.7786 H         1 <0>         0.0668
     56 H23         4.9777   -8.1423  -13.9794 H         1 <0>         0.4109
     57 H24         6.3303   -7.2738  -13.4906 H         1 <0>         0.4114
     58 H25         0.7558   -6.6333  -10.4464 H         1 <0>         0.4120
     59 H26         0.8938   -7.6771  -11.7557 H         1 <0>         0.4039
@<TRIPOS>BOND
     1    1    2 1
     2    1   34 1
     3    1   35 1
     4    1   36 1
     5    2    3 1
     6    2    8 1
     7    2   11 1
     8    3    4 1
     9    3   37 1
    10    3   38 1
    11    4    5 1
    12    4   39 1
    13    4   40 1
    14    5    6 2
    15    5    7 1
    16    8    9 2
    17    8   10 1
    18   11   12 am
    19   11   41 1
    20   12   13 2
    21   12   14 1
    22   14   19 ar
    23   14   15 ar
    24   15   16 ar
    25   15   42 1
    26   16   17 ar
    27   16   43 1
    28   17   18 ar
    29   17   20 1
    30   18   19 ar
    31   18   44 1
    32   19   45 1
    33   20   21 1
    34   20   46 1
    35   20   47 1
    36   21   22 1
    37   21   48 1
    38   21   49 1
    39   22   31 1
    40   22   23 1
    41   22   50 1
    42   23   24 1
    43   23   51 1
    44   23   52 1
    45   24   29 ar
    46   24   25 ar
    47   25   26 ar
    48   25   33 1
    49   26   27 ar
    50   27   28 ar
    51   27   32 1
    52   28   29 ar
    53   29   30 1
    54   30   31 1
    55   30   53 1
    56   31   54 1
    57   31   55 1
    58   32   56 1
    59   32   57 1
    60   33   58 1
    61   33   59 1
@<TRIPOS>MOLECULE
CHEMBL354249__2
   60    62     0     0     0
SMALL
USER_CHARGES

@<TRIPOS>ATOM
      1 C1         -0.0187    1.5258    0.0104 C.3       1 <0>        -0.1365
      2 C2          0.0021   -0.0041    0.0020 C.3       1 <0>         0.0937
      3 C3          0.7421   -0.5109    1.2415 C.3       1 <0>        -0.0678
      4 C4          0.0259   -0.0175    2.5003 C.3       1 <0>        -0.1834
      5 C5          0.7548   -0.5167    3.7212 C.2       1 <0>         0.4910
      6 O1          1.7544   -1.2035    3.5961 O.co2     1 <0>        -0.7165
      7 O2          0.3449   -0.2338    4.8341 O.co2     1 <0>        -0.7176
      8 C6         -1.4117   -0.5257    0.0127 C.2       1 <0>         0.5085
      9 O3         -1.8097   -1.2271   -0.9017 O.co2     1 <0>        -0.6932
     10 O4         -2.1576   -0.2463    0.9358 O.co2     1 <0>        -0.6825
     11 N1          0.6878   -0.4765   -1.2033 N.am      1 <0>        -0.6898
     12 C7          0.2113   -0.1507   -2.4212 C.2       1 <0>         0.5490
     13 O5         -0.7874    0.5352   -2.5195 O.2       1 <0>        -0.5199
     14 C8          0.9033   -0.6275   -3.6376 C.ar      1 <0>        -0.0962
     15 C9          2.0470   -1.4200   -3.5282 C.ar      1 <0>        -0.0885
     16 C10         2.6877   -1.8620   -4.6672 C.ar      1 <0>        -0.1232
     17 C11         2.1992   -1.5209   -5.9159 C.ar      1 <0>        -0.0932
     18 C12         1.0662   -0.7352   -6.0314 C.ar      1 <0>        -0.1268
     19 C13         0.4124   -0.2918   -4.9003 C.ar      1 <0>        -0.0648
     20 C14         2.9046   -2.0070   -7.1558 C.3       1 <0>        -0.0750
     21 C15         2.3218   -3.3572   -7.5779 C.3       1 <0>        -0.1124
     22 C16         3.0379   -3.8506   -8.8367 C.3       1 <0>        -0.1040
     23 C17         2.5335   -5.2485   -9.1986 C.3       1 <0>        -0.0597
     24 C18         3.0478   -5.6556  -10.5513 C.ar      1 <0>        -0.3045
     25 C19         3.0792   -7.0035  -10.9023 C.ar      1 <0>         0.5399
     26 N2          3.5350   -7.3474  -12.1046 N.ar      1 <0>        -0.5915
     27 C20         3.9538   -6.4274  -12.9605 C.ar      1 <0>         0.6792
     28 N3          3.9391   -5.1378  -12.6589 N.ar      1 <0>        -0.6011
     29 C21         3.4973   -4.7223  -11.4729 C.ar      1 <0>         0.5017
     30 N4          3.4973   -3.3681  -11.1729 N.pl3     1 <0>        -0.6959
     31 C22         2.7411   -2.8993  -10.0033 C.3       1 <0>         0.1119
     32 N5          4.4193   -6.8239  -14.2019 N.pl3     1 <0>        -0.7995
     33 N6          2.6425   -7.9723  -10.0123 N.pl3     1 <0>        -0.7866
     34 H1          1.0039    1.9031    0.0027 H         1 <0>         0.0323
     35 H2         -0.5459    1.8868   -0.8726 H         1 <0>         0.0597
     36 H3         -0.5289    1.8773    0.9072 H         1 <0>         0.0694
     37 H4          0.7568   -1.6008    1.2356 H         1 <0>         0.0506
     38 H5          1.7647   -0.1336    1.2338 H         1 <0>         0.0440
     39 H6          0.0111    1.0724    2.5063 H         1 <0>         0.0501
     40 H7         -0.9967   -0.3948    2.5081 H         1 <0>         0.1031
     41 H8          1.4848   -1.0239   -1.1249 H         1 <0>         0.3819
     42 H9          2.4297   -1.6864   -2.5540 H         1 <0>         0.1291
     43 H10         3.5727   -2.4754   -4.5839 H         1 <0>         0.1209
     44 H11         0.6902   -0.4722   -7.0090 H         1 <0>         0.1191
     45 H12        -0.4746    0.3174   -4.9918 H         1 <0>         0.1352
     46 H13         2.7658   -1.2840   -7.9597 H         1 <0>         0.0686
     47 H14         3.9686   -2.1195   -6.9480 H         1 <0>         0.0725
     48 H15         2.4605   -4.0801   -6.7740 H         1 <0>         0.0821
     49 H16         1.2577   -3.2447   -7.7858 H         1 <0>         0.0768
     50 H17         4.1124   -3.8834   -8.6565 H         1 <0>         0.0901
     51 H18         2.8805   -5.9619   -8.4511 H         1 <0>         0.0911
     52 H19         1.4436   -5.2462   -9.2128 H         1 <0>         0.0923
     53 H20         3.9882   -2.7407  -11.7263 H         1 <0>         0.4203
     54 H21         1.6741   -2.9101  -10.2255 H         1 <0>         0.0920
     55 H22         3.0540   -1.8881   -9.7431 H         1 <0>         0.1154
     56 H23         4.4359   -7.7651  -14.4357 H         1 <0>         0.4430
     57 H24         4.7290   -6.1606  -14.8383 H         1 <0>         0.4262
     58 H25         2.3119   -7.7138   -9.1377 H         1 <0>         0.4310
     59 H26         2.6674   -8.9088  -10.2640 H         1 <0>         0.4244
     60 H27         4.2529   -4.4893  -13.3083 H         1 <0>         0.4340
@<TRIPOS>BOND
     1    1    2 1
     2    1   34 1
     3    1   35 1
     4    1   36 1
     5    2    3 1
     6    2    8 1
     7    2   11 1
     8    3    4 1
     9    3   37 1
    10    3   38 1
    11    4    5 1
    12    4   39 1
    13    4   40 1
    14    5    6 2
    15    5    7 1
    16    8    9 2
    17    8   10 1
    18   11   12 am
    19   11   41 1
    20   12   13 2
    21   12   14 1
    22   14   19 ar
    23   14   15 ar
    24   15   16 ar
    25   15   42 1
    26   16   17 ar
    27   16   43 1
    28   17   18 ar
    29   17   20 1
    30   18   19 ar
    31   18   44 1
    32   19   45 1
    33   20   21 1
    34   20   46 1
    35   20   47 1
    36   21   22 1
    37   21   48 1
    38   21   49 1
    39   22   31 1
    40   22   23 1
    41   22   50 1
    42   23   24 1
    43   23   51 1
    44   23   52 1
    45   24   29 ar
    46   24   25 ar
    47   25   26 ar
    48   25   33 1
    49   26   27 ar
    50   27   28 ar
    51   27   32 1
    52   28   29 ar
    53   28   60 1
    54   29   30 1
    55   30   31 1
    56   30   53 1
    57   31   54 1
    58   31   55 1
    59   32   56 1
    60   32   57 1
    61   33   58 1
    62   33   59 1
@<TRIPOS>MOLECULE
CHEMBL354249__3
   59    61     0     0     0
SMALL
USER_CHARGES

@<TRIPOS>ATOM
      1 C1         -0.0187    1.5258    0.0104 C.3       1 <0>        -0.1360
      2 C2          0.0021   -0.0041    0.0020 C.3       1 <0>         0.0942
      3 C3          0.7421   -0.5109    1.2415 C.3       1 <0>        -0.0680
      4 C4          0.0259   -0.0175    2.5003 C.3       1 <0>        -0.1828
      5 C5          0.7548   -0.5167    3.7212 C.2       1 <0>         0.4912
      6 O1          1.7544   -1.2035    3.5961 O.co2     1 <0>        -0.7157
      7 O2          0.3449   -0.2338    4.8341 O.co2     1 <0>        -0.7202
      8 C6         -1.4117   -0.5257    0.0127 C.2       1 <0>         0.5083
      9 O3         -1.8097   -1.2271   -0.9017 O.co2     1 <0>        -0.6906
     10 O4         -2.1576   -0.2463    0.9358 O.co2     1 <0>        -0.6863
     11 N1          0.6878   -0.4765   -1.2033 N.am      1 <0>        -0.6923
     12 C7          0.2113   -0.1507   -2.4212 C.2       1 <0>         0.5528
     13 O5         -0.7874    0.5352   -2.5195 O.2       1 <0>        -0.5231
     14 C8          0.9033   -0.6275   -3.6376 C.ar      1 <0>        -0.1050
     15 C9          2.0470   -1.4200   -3.5282 C.ar      1 <0>        -0.0890
     16 C10         2.6877   -1.8620   -4.6672 C.ar      1 <0>        -0.1250
     17 C11         2.1992   -1.5209   -5.9159 C.ar      1 <0>        -0.0817
     18 C12         1.0662   -0.7352   -6.0314 C.ar      1 <0>        -0.1277
     19 C13         0.4124   -0.2918   -4.9003 C.ar      1 <0>        -0.0648
     20 C14         2.9046   -2.0070   -7.1558 C.3       1 <0>        -0.0774
     21 C15         2.3218   -3.3572   -7.5779 C.3       1 <0>        -0.1087
     22 C16         3.0379   -3.8506   -8.8367 C.3       1 <0>        -0.1009
     23 C17         2.5335   -5.2485   -9.1986 C.3       1 <0>        -0.0425
     24 C18         3.0478   -5.6556  -10.5513 C.ar      1 <0>        -0.3600
     25 C19         3.0792   -7.0035  -10.9023 C.ar      1 <0>         0.4976
     26 N2          3.5350   -7.3474  -12.1046 N.ar      1 <0>        -0.6559
     27 C20         3.9538   -6.4274  -12.9605 C.ar      1 <0>         0.6283
     28 N3          3.9391   -5.1378  -12.6589 N.ar      1 <0>        -0.6539
     29 C21         3.4973   -4.7223  -11.4729 C.ar      1 <0>         0.4983
     30 N4          3.4973   -3.3681  -11.1729 N.pl3     1 <0>        -0.7160
     31 C22         2.7411   -2.8993  -10.0033 C.3       1 <0>         0.1272
     32 N5          4.4193   -6.8239  -14.2019 N.pl3     1 <0>        -0.8258
     33 N6          2.6425   -7.9723  -10.0123 N.pl3     1 <0>        -0.8368
     34 H1          1.0039    1.9031    0.0027 H         1 <0>         0.0319
     35 H2         -0.5459    1.8868   -0.8726 H         1 <0>         0.0600
     36 H3         -0.5289    1.8773    0.9072 H         1 <0>         0.0676
     37 H4          0.7568   -1.6008    1.2356 H         1 <0>         0.0506
     38 H5          1.7647   -0.1336    1.2338 H         1 <0>         0.0438
     39 H6          0.0111    1.0724    2.5063 H         1 <0>         0.0495
     40 H7         -0.9967   -0.3948    2.5081 H         1 <0>         0.1030
     41 H8          1.4848   -1.0239   -1.1249 H         1 <0>         0.3823
     42 H9          2.4297   -1.6864   -2.5540 H         1 <0>         0.1267
     43 H10         3.5727   -2.4754   -4.5839 H         1 <0>         0.1212
     44 H11         0.6902   -0.4722   -7.0090 H         1 <0>         0.1205
     45 H12        -0.4746    0.3174   -4.9918 H         1 <0>         0.1333
     46 H13         2.7658   -1.2840   -7.9597 H         1 <0>         0.0704
     47 H14         3.9686   -2.1195   -6.9480 H         1 <0>         0.0710
     48 H15         2.4605   -4.0801   -6.7740 H         1 <0>         0.0729
     49 H16         1.2577   -3.2447   -7.7858 H         1 <0>         0.0702
     50 H17         4.1124   -3.8834   -8.6565 H         1 <0>         0.0791
     51 H18         2.8805   -5.9619   -8.4511 H         1 <0>         0.0664
     52 H19         1.4436   -5.2462   -9.2128 H         1 <0>         0.0659
     53 H20         3.9882   -2.7407  -11.7263 H         1 <0>         0.4067
     54 H21         1.6741   -2.9101  -10.2255 H         1 <0>         0.0662
     55 H22         3.0540   -1.8881   -9.7431 H         1 <0>         0.0904
     56 H23         4.4359   -7.7651  -14.4357 H         1 <0>         0.4109
     57 H24         4.7290   -6.1606  -14.8383 H         1 <0>         0.4113
     58 H25         2.3119   -7.7138   -9.1377 H         1 <0>         0.4122
     59 H26         2.6674   -8.9088  -10.2640 H         1 <0>         0.4041
@<TRIPOS>BOND
     1    1    2 1
     2    1   34 1
     3    1   35 1
     4    1   36 1
     5    2    3 1
     6    2    8 1
     7    2   11 1
     8    3    4 1
     9    3   37 1
    10    3   38 1
    11    4    5 1
    12    4   39 1
    13    4   40 1
    14    5    6 2
    15    5    7 1
    16    8    9 2
    17    8   10 1
    18   11   12 am
    19   11   41 1
    20   12   13 2
    21   12   14 1
    22   14   19 ar
    23   14   15 ar
    24   15   16 ar
    25   15   42 1
    26   16   17 ar
    27   16   43 1
    28   17   18 ar
    29   17   20 1
    30   18   19 ar
    31   18   44 1
    32   19   45 1
    33   20   21 1
    34   20   46 1
    35   20   47 1
    36   21   22 1
    37   21   48 1
    38   21   49 1
    39   22   31 1
    40   22   23 1
    41   22   50 1
    42   23   24 1
    43   23   51 1
    44   23   52 1
    45   24   29 ar
    46   24   25 ar
    47   25   26 ar
    48   25   33 1
    49   26   27 ar
    50   27   28 ar
    51   27   32 1
    52   28   29 ar
    53   29   30 1
    54   30   31 1
    55   30   53 1
    56   31   54 1
    57   31   55 1
    58   32   56 1
    59   32   57 1
    60   33   58 1
    61   33   59 1
@<TRIPOS>MOLECULE
CHEMBL91866
   53    55     0     0     0
SMALL
USER_CHARGES

@<TRIPOS>ATOM
      1 C1         -0.0169    1.3937    0.0097 C.ar      1 <0>        -0.0171
      2 C2          1.1662    2.0965    0.0022 C.ar      1 <0>        -0.2069
      3 C3          2.3811    1.4169   -0.0131 C.ar      1 <0>         0.2266
      4 C4          2.4034    0.0249   -0.0208 C.ar      1 <0>        -0.2050
      5 C5          1.2237   -0.6836   -0.0138 C.ar      1 <0>        -0.0369
      6 C6          0.0021   -0.0041    0.0020 C.ar      1 <0>        -0.1667
      7 C7         -1.2644   -0.7605    0.0105 C.2       1 <0>         0.5572
      8 O1         -2.3263   -0.1682    0.0243 O.2       1 <0>        -0.5624
      9 N1         -1.2445   -2.1081    0.0031 N.am      1 <0>        -0.6802
     10 C8         -2.5022   -2.8593    0.0116 C.3       1 <0>         0.0736
     11 H1         -3.2516   -2.3197   -0.5676 H         1 <0>         0.0768
     12 C9         -2.2758   -4.2399   -0.6078 C.3       1 <0>        -0.0800
     13 C10        -1.9084   -4.0824   -2.0846 C.3       1 <0>        -0.1775
     14 C11        -1.6854   -5.4422   -2.6946 C.2       1 <0>         0.4911
     15 O2         -1.8089   -6.4445   -2.0115 O.co2     1 <0>        -0.6976
     16 O3         -1.3815   -5.5401   -3.8713 O.co2     1 <0>        -0.7209
     17 C12        -2.9829   -3.0182    1.4310 C.2       1 <0>         0.4955
     18 O4         -2.3350   -2.5475    2.3503 O.co2     1 <0>        -0.6971
     19 O5         -4.0198   -3.6173    1.6600 O.co2     1 <0>        -0.7022
     20 N2          3.5749    2.1299   -0.0211 N.pl3     1 <0>        -0.7364
     21 C13         4.8542    1.4162   -0.0371 C.3       1 <0>         0.1135
     22 C14         6.0023    2.4276   -0.0432 C.3       1 <0>         0.1336
     23 C15         7.3426    1.6920    0.1016 C.3       1 <0>         0.1219
     24 N3          7.3629    1.0201    1.4088 N.pl3     1 <0>        -0.7115
     25 C16         6.9472    1.7186    2.5315 C.2       1 <0>         0.4042
     26 C17         6.1964    2.8768    2.3864 C.2       1 <0>        -0.0901
     27 C18         5.7826    3.5670    3.5305 C.2       1 <0>         0.5435
     28 N4          6.1321    3.0780    4.7404 N.am      1 <0>        -0.6497
     29 C19         6.8720    1.9392    4.8298 C.2       1 <0>         0.6292
     30 N5          7.2637    1.2849    3.7574 N.2       1 <0>        -0.5907
     31 N6          7.2179    1.4616    6.0686 N.pl3     1 <0>        -0.8270
     32 O6          5.1203    4.5894    3.4378 O.2       1 <0>        -0.5531
     33 N7          5.8614    3.3468    1.0976 N.pl3     1 <0>        -0.7261
     34 H2         -0.9590    1.9215    0.0260 H         1 <0>         0.1317
     35 H3          1.1522    3.1764    0.0078 H         1 <0>         0.1182
     36 H4          3.3474   -0.4995   -0.0326 H         1 <0>         0.1187
     37 H5          1.2416   -1.7634   -0.0204 H         1 <0>         0.1260
     38 H6         -0.3974   -2.5806   -0.0078 H         1 <0>         0.3876
     39 H7         -1.4645   -4.7448   -0.0833 H         1 <0>         0.0541
     40 H8         -3.1876   -4.8309   -0.5212 H         1 <0>         0.0780
     41 H9         -2.7197   -3.5775   -2.6090 H         1 <0>         0.0520
     42 H10        -0.9966   -3.4914   -2.1711 H         1 <0>         0.0506
     43 H11         3.5606    3.0997   -0.0161 H         1 <0>         0.3959
     44 H12         4.9299    0.7860    0.8490 H         1 <0>         0.0616
     45 H13         4.9126    0.7950   -0.9309 H         1 <0>         0.0642
     46 H14         5.9903    2.9927   -0.9752 H         1 <0>         0.1007
     47 H15         7.4434    0.9527   -0.6929 H         1 <0>         0.0966
     48 H16         8.1625    2.4080    0.0440 H         1 <0>         0.0715
     49 H17         7.6627    0.1007    1.4846 H         1 <0>         0.4081
     50 H18         6.9354    1.9345    6.8670 H         1 <0>         0.4125
     51 H19         7.7450    0.6510    6.1460 H         1 <0>         0.4262
     52 H20         5.5459    4.2547    0.9671 H         1 <0>         0.4028
     53 H21         5.8553    3.5398    5.5473 H         1 <0>         0.4114
@<TRIPOS>BOND
     1    1    6 ar
     2    1    2 ar
     3    1   34 1
     4    2    3 ar
     5    2   35 1
     6    3    4 ar
     7    3   20 1
     8    4    5 ar
     9    4   36 1
    10    5    6 ar
    11    5   37 1
    12    6    7 1
    13    7    8 2
    14    7    9 am
    15    9   10 1
    16    9   38 1
    17   10   11 1
    18   10   12 1
    19   10   17 1
    20   12   13 1
    21   12   39 1
    22   12   40 1
    23   13   14 1
    24   13   41 1
    25   13   42 1
    26   14   15 2
    27   14   16 1
    28   17   18 2
    29   17   19 1
    30   20   21 1
    31   20   43 1
    32   21   22 1
    33   21   44 1
    34   21   45 1
    35   22   33 1
    36   22   23 1
    37   22   46 1
    38   23   24 1
    39   23   47 1
    40   23   48 1
    41   24   25 1
    42   24   49 1
    43   25   30 1
    44   25   26 2
    45   26   27 1
    46   26   33 1
    47   27   28 am
    48   27   32 2
    49   28   29 1
    50   28   53 1
    51   29   30 2
    52   29   31 1
    53   31   50 1
    54   31   51 1
    55   33   52 1
@<TRIPOS>MOLECULE
CHEMBL91866__1
   53    55     0     0     0
SMALL
USER_CHARGES

@<TRIPOS>ATOM
      1 C1         -0.0169    1.3937    0.0097 C.ar      1 <0>        -0.0165
      2 C2          1.1662    2.0965    0.0022 C.ar      1 <0>        -0.2049
      3 C3          2.3811    1.4169   -0.0131 C.ar      1 <0>         0.2261
      4 C4          2.4034    0.0249   -0.0208 C.ar      1 <0>        -0.2056
      5 C5          1.2237   -0.6836   -0.0138 C.ar      1 <0>        -0.0376
      6 C6          0.0021   -0.0041    0.0020 C.ar      1 <0>        -0.1656
      7 C7         -1.2644   -0.7605    0.0105 C.2       1 <0>         0.5569
      8 O1         -2.3263   -0.1682    0.0243 O.2       1 <0>        -0.5614
      9 N1         -1.2445   -2.1081    0.0031 N.am      1 <0>        -0.6802
     10 C8         -2.5022   -2.8593    0.0116 C.3       1 <0>         0.0735
     11 H1         -3.2516   -2.3197   -0.5676 H         1 <0>         0.0769
     12 C9         -2.2758   -4.2399   -0.6078 C.3       1 <0>        -0.0798
     13 C10        -1.9084   -4.0824   -2.0846 C.3       1 <0>        -0.1775
     14 C11        -1.6854   -5.4422   -2.6946 C.2       1 <0>         0.4911
     15 O2         -1.8089   -6.4445   -2.0115 O.co2     1 <0>        -0.6976
     16 O3         -1.3815   -5.5401   -3.8713 O.co2     1 <0>        -0.7210
     17 C12        -2.9829   -3.0182    1.4310 C.2       1 <0>         0.4953
     18 O4         -2.3350   -2.5475    2.3503 O.co2     1 <0>        -0.6968
     19 O5         -4.0198   -3.6173    1.6600 O.co2     1 <0>        -0.7021
     20 N2          3.5749    2.1299   -0.0211 N.pl3     1 <0>        -0.7370
     21 C13         4.8542    1.4162   -0.0371 C.3       1 <0>         0.1153
     22 C14         6.0023    2.4276   -0.0432 C.3       1 <0>         0.1269
     23 C15         7.3431    1.6927    0.1049 C.3       1 <0>         0.1283
     24 N3          7.3650    1.0382    1.4211 N.pl3     1 <0>        -0.7326
     25 C16         6.9465    1.7447    2.5310 C.2       1 <0>         0.3374
     26 C17         6.2027    2.8805    2.3858 C.2       1 <0>        -0.0396
     27 C18         5.7851    3.5782    3.5371 C.2       1 <0>         0.5414
     28 N4          6.1287    3.1141    4.7498 N.2       1 <0>        -0.6299
     29 C19         6.8480    2.0200    4.8786 C.2       1 <0>         0.6561
     30 N5          7.2704    1.3169    3.7927 N.pl3     1 <0>        -0.6350
     31 N6          7.1796    1.5789    6.1340 N.pl3     1 <0>        -0.8250
     32 O6          5.1164    4.5972    3.4328 O.2       1 <0>        -0.5309
     33 N7          5.8619    3.3472    1.0974 N.pl3     1 <0>        -0.7224
     34 H2         -0.9590    1.9215    0.0260 H         1 <0>         0.1325
     35 H3          1.1522    3.1764    0.0078 H         1 <0>         0.1193
     36 H4          3.3474   -0.4995   -0.0326 H         1 <0>         0.1172
     37 H5          1.2416   -1.7634   -0.0204 H         1 <0>         0.1257
     38 H6         -0.3974   -2.5806   -0.0078 H         1 <0>         0.3873
     39 H7         -1.4645   -4.7448   -0.0833 H         1 <0>         0.0538
     40 H8         -3.1876   -4.8309   -0.5212 H         1 <0>         0.0781
     41 H9         -2.7197   -3.5775   -2.6090 H         1 <0>         0.0522
     42 H10        -0.9966   -3.4914   -2.1711 H         1 <0>         0.0504
     43 H11         3.5606    3.0997   -0.0161 H         1 <0>         0.3969
     44 H12         4.9299    0.7860    0.8490 H         1 <0>         0.0597
     45 H13         4.9126    0.7950   -0.9309 H         1 <0>         0.0645
     46 H14         5.9913    2.9921   -0.9756 H         1 <0>         0.1030
     47 H15         7.4402    0.9429   -0.6803 H         1 <0>         0.0982
     48 H16         8.1636    2.4069    0.0357 H         1 <0>         0.0732
     49 H17         7.6700    0.1215    1.5088 H         1 <0>         0.4022
     50 H18         6.8843    2.0723    6.9152 H         1 <0>         0.4302
     51 H19         7.7095    0.7735    6.2409 H         1 <0>         0.4094
     52 H20         5.5421    4.2536    0.9670 H         1 <0>         0.4092
     53 H21         7.8002    0.5131    3.9113 H         1 <0>         0.4111
@<TRIPOS>BOND
     1    1    6 ar
     2    1    2 ar
     3    1   34 1
     4    2    3 ar
     5    2   35 1
     6    3    4 ar
     7    3   20 1
     8    4    5 ar
     9    4   36 1
    10    5    6 ar
    11    5   37 1
    12    6    7 1
    13    7    8 2
    14    7    9 am
    15    9   10 1
    16    9   38 1
    17   10   11 1
    18   10   12 1
    19   10   17 1
    20   12   13 1
    21   12   39 1
    22   12   40 1
    23   13   14 1
    24   13   41 1
    25   13   42 1
    26   14   15 2
    27   14   16 1
    28   17   18 2
    29   17   19 1
    30   20   21 1
    31   20   43 1
    32   21   22 1
    33   21   44 1
    34   21   45 1
    35   22   33 1
    36   22   23 1
    37   22   46 1
    38   23   24 1
    39   23   47 1
    40   23   48 1
    41   24   25 1
    42   24   49 1
    43   25   30 1
    44   25   26 2
    45   26   27 1
    46   26   33 1
    47   27   28 1
    48   27   32 2
    49   28   29 2
    50   29   30 1
    51   29   31 1
    52   30   53 1
    53   31   50 1
    54   31   51 1
    55   33   52 1
@<TRIPOS>MOLECULE
CHEMBL91866__2
   53    55     0     0     0
SMALL
USER_CHARGES

@<TRIPOS>ATOM
      1 C1         -0.0169    1.3937    0.0097 C.ar      1 <0>        -0.0171
      2 C2          1.1662    2.0965    0.0022 C.ar      1 <0>        -0.2069
      3 C3          2.3811    1.4169   -0.0131 C.ar      1 <0>         0.2266
      4 C4          2.4034    0.0249   -0.0208 C.ar      1 <0>        -0.2050
      5 C5          1.2237   -0.6836   -0.0138 C.ar      1 <0>        -0.0369
      6 C6          0.0021   -0.0041    0.0020 C.ar      1 <0>        -0.1668
      7 C7         -1.2644   -0.7605    0.0105 C.2       1 <0>         0.5572
      8 O1         -2.3263   -0.1682    0.0243 O.2       1 <0>        -0.5624
      9 N1         -1.2445   -2.1081    0.0031 N.am      1 <0>        -0.6802
     10 C8         -2.5022   -2.8593    0.0116 C.3       1 <0>         0.0736
     11 H1         -3.2516   -2.3197   -0.5676 H         1 <0>         0.0766
     12 C9         -2.2758   -4.2399   -0.6078 C.3       1 <0>        -0.0799
     13 C10        -1.9084   -4.0824   -2.0846 C.3       1 <0>        -0.1777
     14 C11        -1.6854   -5.4422   -2.6946 C.2       1 <0>         0.4912
     15 O2         -1.8089   -6.4445   -2.0115 O.co2     1 <0>        -0.6975
     16 O3         -1.3815   -5.5401   -3.8713 O.co2     1 <0>        -0.7211
     17 C12        -2.9829   -3.0182    1.4310 C.2       1 <0>         0.4955
     18 O4         -2.3350   -2.5475    2.3503 O.co2     1 <0>        -0.6968
     19 O5         -4.0198   -3.6173    1.6600 O.co2     1 <0>        -0.7021
     20 N2          3.5749    2.1299   -0.0211 N.pl3     1 <0>        -0.7364
     21 C13         4.8542    1.4162   -0.0371 C.3       1 <0>         0.1135
     22 C14         6.0023    2.4276   -0.0432 C.3       1 <0>         0.1337
     23 C15         7.3394    1.6937   -0.2216 C.3       1 <0>         0.1220
     24 N3          7.3342    1.0349   -1.5356 N.pl3     1 <0>        -0.7115
     25 C16         6.8968    1.7447   -2.6429 C.2       1 <0>         0.4048
     26 C17         6.1492    2.9013   -2.4715 C.2       1 <0>        -0.0908
     27 C18         5.7132    3.6029   -3.6004 C.2       1 <0>         0.5437
     28 N4          6.0390    3.1261   -4.8217 N.am      1 <0>        -0.6498
     29 C19         6.7769    1.9884   -4.9370 C.2       1 <0>         0.6296
     30 N5          7.1893    1.3234   -3.8790 N.2       1 <0>        -0.5909
     31 N6          7.0978    1.5228   -6.1870 N.pl3     1 <0>        -0.8266
     32 O6          5.0522    4.6238   -3.4845 O.2       1 <0>        -0.5537
     33 N7          5.8393    3.3582   -1.1718 N.pl3     1 <0>        -0.7262
     34 H2         -0.9590    1.9215    0.0260 H         1 <0>         0.1317
     35 H3          1.1522    3.1764    0.0078 H         1 <0>         0.1182
     36 H4          3.3474   -0.4995   -0.0326 H         1 <0>         0.1187
     37 H5          1.2416   -1.7634   -0.0204 H         1 <0>         0.1259
     38 H6         -0.3974   -2.5806   -0.0078 H         1 <0>         0.3876
     39 H7         -1.4645   -4.7448   -0.0833 H         1 <0>         0.0542
     40 H8         -3.1876   -4.8309   -0.5212 H         1 <0>         0.0781
     41 H9         -2.7197   -3.5775   -2.6090 H         1 <0>         0.0519
     42 H10        -0.9966   -3.4914   -2.1711 H         1 <0>         0.0503
     43 H11         3.5606    3.0997   -0.0161 H         1 <0>         0.3959
     44 H12         4.9299    0.7860    0.8490 H         1 <0>         0.0640
     45 H13         4.9126    0.7950   -0.9309 H         1 <0>         0.0618
     46 H14         6.0085    2.9833    0.8945 H         1 <0>         0.1006
     47 H15         8.1603    2.4091   -0.1727 H         1 <0>         0.0714
     48 H16         7.4557    0.9464    0.5634 H         1 <0>         0.0963
     49 H17         7.6330    0.1166   -1.6266 H         1 <0>         0.4083
     50 H18         6.7994    2.0034   -6.9750 H         1 <0>         0.4126
     51 H19         7.6232    0.7131   -6.2828 H         1 <0>         0.4265
     52 H20         5.5259    4.2646   -1.0261 H         1 <0>         0.4028
     53 H21         5.7466    3.5960   -5.6184 H         1 <0>         0.4114
@<TRIPOS>BOND
     1    1    6 ar
     2    1    2 ar
     3    1   34 1
     4    2    3 ar
     5    2   35 1
     6    3    4 ar
     7    3   20 1
     8    4    5 ar
     9    4   36 1
    10    5    6 ar
    11    5   37 1
    12    6    7 1
    13    7    8 2
    14    7    9 am
    15    9   10 1
    16    9   38 1
    17   10   11 1
    18   10   12 1
    19   10   17 1
    20   12   13 1
    21   12   39 1
    22   12   40 1
    23   13   14 1
    24   13   41 1
    25   13   42 1
    26   14   15 2
    27   14   16 1
    28   17   18 2
    29   17   19 1
    30   20   21 1
    31   20   43 1
    32   21   22 1
    33   21   44 1
    34   21   45 1
    35   22   33 1
    36   22   23 1
    37   22   46 1
    38   23   24 1
    39   23   47 1
    40   23   48 1
    41   24   25 1
    42   24   49 1
    43   25   30 1
    44   25   26 2
    45   26   27 1
    46   26   33 1
    47   27   28 am
    48   27   32 2
    49   28   29 1
    50   28   53 1
    51   29   30 2
    52   29   31 1
    53   31   50 1
    54   31   51 1
    55   33   52 1
@<TRIPOS>MOLECULE
CHEMBL91866__3
   53    55     0     0     0
SMALL
USER_CHARGES

@<TRIPOS>ATOM
      1 C1         -0.0169    1.3937    0.0097 C.ar      1 <0>        -0.0165
      2 C2          1.1662    2.0965    0.0022 C.ar      1 <0>        -0.2049
      3 C3          2.3811    1.4169   -0.0131 C.ar      1 <0>         0.2261
      4 C4          2.4034    0.0249   -0.0208 C.ar      1 <0>        -0.2057
      5 C5          1.2237   -0.6836   -0.0138 C.ar      1 <0>        -0.0376
      6 C6          0.0021   -0.0041    0.0020 C.ar      1 <0>        -0.1656
      7 C7         -1.2644   -0.7605    0.0105 C.2       1 <0>         0.5570
      8 O1         -2.3263   -0.1682    0.0243 O.2       1 <0>        -0.5614
      9 N1         -1.2445   -2.1081    0.0031 N.am      1 <0>        -0.6802
     10 C8         -2.5022   -2.8593    0.0116 C.3       1 <0>         0.0735
     11 H1         -3.2516   -2.3197   -0.5676 H         1 <0>         0.0769
     12 C9         -2.2758   -4.2399   -0.6078 C.3       1 <0>        -0.0798
     13 C10        -1.9084   -4.0824   -2.0846 C.3       1 <0>        -0.1777
     14 C11        -1.6854   -5.4422   -2.6946 C.2       1 <0>         0.4912
     15 O2         -1.8089   -6.4445   -2.0115 O.co2     1 <0>        -0.6976
     16 O3         -1.3815   -5.5401   -3.8713 O.co2     1 <0>        -0.7211
     17 C12        -2.9829   -3.0182    1.4310 C.2       1 <0>         0.4956
     18 O4         -2.3350   -2.5475    2.3503 O.co2     1 <0>        -0.6970
     19 O5         -4.0198   -3.6173    1.6600 O.co2     1 <0>        -0.7019
     20 N2          3.5749    2.1299   -0.0211 N.pl3     1 <0>        -0.7370
     21 C13         4.8542    1.4162   -0.0371 C.3       1 <0>         0.1154
     22 C14         6.0023    2.4276   -0.0432 C.3       1 <0>         0.1269
     23 C15         7.3399    1.6943   -0.2248 C.3       1 <0>         0.1284
     24 N3          7.3361    1.0531   -1.5478 N.pl3     1 <0>        -0.7326
     25 C16         6.8961    1.7707   -2.6421 C.2       1 <0>         0.3379
     26 C17         6.1554    2.9049   -2.4710 C.2       1 <0>        -0.0402
     27 C18         5.7156    3.6142   -3.6069 C.2       1 <0>         0.5416
     28 N4          6.0355    3.1624   -4.8307 N.2       1 <0>        -0.6302
     29 C19         6.7520    2.0697   -4.9844 C.2       1 <0>         0.6565
     30 N5          7.1953    1.3557   -3.9141 N.pl3     1 <0>        -0.6350
     31 N6          7.0583    1.6408   -6.2505 N.pl3     1 <0>        -0.8247
     32 O6          5.0484    4.6316   -3.4793 O.2       1 <0>        -0.5316
     33 N7          5.8398    3.3586   -1.1716 N.pl3     1 <0>        -0.7225
     34 H2         -0.9590    1.9215    0.0260 H         1 <0>         0.1325
     35 H3          1.1522    3.1764    0.0078 H         1 <0>         0.1193
     36 H4          3.3474   -0.4995   -0.0326 H         1 <0>         0.1172
     37 H5          1.2416   -1.7634   -0.0204 H         1 <0>         0.1256
     38 H6         -0.3974   -2.5806   -0.0078 H         1 <0>         0.3873
     39 H7         -1.4645   -4.7448   -0.0833 H         1 <0>         0.0539
     40 H8         -3.1876   -4.8309   -0.5212 H         1 <0>         0.0781
     41 H9         -2.7197   -3.5775   -2.6090 H         1 <0>         0.0523
     42 H10        -0.9966   -3.4914   -2.1711 H         1 <0>         0.0501
     43 H11         3.5606    3.0997   -0.0161 H         1 <0>         0.3970
     44 H12         4.9299    0.7860    0.8490 H         1 <0>         0.0642
     45 H13         4.9126    0.7950   -0.9309 H         1 <0>         0.0599
     46 H14         6.0096    2.9827    0.8948 H         1 <0>         0.1029
     47 H15         8.1616    2.4079   -0.1644 H         1 <0>         0.0732
     48 H16         7.4522    0.9367    0.5507 H         1 <0>         0.0980
     49 H17         7.6386    0.1372   -1.6504 H         1 <0>         0.4023
     50 H18         6.7473    2.1416   -7.0208 H         1 <0>         0.4303
     51 H19         7.5859    0.8365   -6.3757 H         1 <0>         0.4097
     52 H20         5.5233    4.2638   -1.0258 H         1 <0>         0.4091
     53 H21         7.7232    0.5536   -4.0510 H         1 <0>         0.4114
@<TRIPOS>BOND
     1    1    6 ar
     2    1    2 ar
     3    1   34 1
     4    2    3 ar
     5    2   35 1
     6    3    4 ar
     7    3   20 1
     8    4    5 ar
     9    4   36 1
    10    5    6 ar
    11    5   37 1
    12    6    7 1
    13    7    8 2
    14    7    9 am
    15    9   10 1
    16    9   38 1
    17   10   11 1
    18   10   12 1
    19   10   17 1
    20   12   13 1
    21   12   39 1
    22   12   40 1
    23   13   14 1
    24   13   41 1
    25   13   42 1
    26   14   15 2
    27   14   16 1
    28   17   18 2
    29   17   19 1
    30   20   21 1
    31   20   43 1
    32   21   22 1
    33   21   44 1
    34   21   45 1
    35   22   33 1
    36   22   23 1
    37   22   46 1
    38   23   24 1
    39   23   47 1
    40   23   48 1
    41   24   25 1
    42   24   49 1
    43   25   30 1
    44   25   26 2
    45   26   27 1
    46   26   33 1
    47   27   28 1
    48   27   32 2
    49   28   29 2
    50   29   30 1
    51   29   31 1
    52   30   53 1
    53   31   50 1
    54   31   51 1
    55   33   52 1
@<TRIPOS>MOLECULE
CHEMBL164845
   35    37     0     0     0
SMALL
USER_CHARGES

@<TRIPOS>ATOM
      1 C1         -0.1243    1.1301    1.3324 C.ar      1 <0>        -0.0960
      2 C2          0.9443    1.6006    2.0752 C.ar      1 <0>        -0.1182
      3 C3          2.1526    0.9363    2.0488 C.ar      1 <0>        -0.0885
      4 C4          2.2962   -0.2149    1.2692 C.ar      1 <0>        -0.0941
      5 C5          1.2123   -0.6841    0.5217 C.ar      1 <0>        -0.1041
      6 C6          0.0103   -0.0090    0.5582 C.ar      1 <0>        -0.1200
      7 C7          3.5837   -0.9300    1.2352 C.2       1 <0>        -0.0177
      8 C8          3.7182   -2.0372    0.4841 C.2       1 <0>        -0.2053
      9 C9          5.0033   -2.7509    0.4502 C.ar      1 <0>         0.0610
     10 C10         6.2010   -2.0543    0.5828 C.ar      1 <0>        -0.1308
     11 C11         7.4140   -2.7258    0.5505 C.ar      1 <0>        -0.0102
     12 C12         7.4688   -4.0806    0.3893 C.ar      1 <0>        -0.1576
     13 C13         6.2862   -4.8206    0.2525 C.ar      1 <0>         0.2034
     14 C14         5.0392   -4.1537    0.2883 C.ar      1 <0>        -0.1903
     15 C15         3.8610   -4.9223    0.1534 C.ar      1 <0>         0.5749
     16 N1          3.9788   -6.2345    0.0048 N.ar      1 <0>        -0.5828
     17 C16         5.1704   -6.8245   -0.0183 C.ar      1 <0>         0.6846
     18 N2          6.3008   -6.1529    0.0919 N.ar      1 <0>        -0.5783
     19 N3          5.2276   -8.1974   -0.1763 N.pl3     1 <0>        -0.7877
     20 N4          2.6191   -4.3222    0.1762 N.pl3     1 <0>        -0.8127
     21 H1         -1.0694    1.6520    1.3606 H         1 <0>         0.1303
     22 H2          0.8319    2.4905    2.6768 H         1 <0>         0.1318
     23 H3          2.9858    1.3049    2.6287 H         1 <0>         0.1305
     24 H4          1.3160   -1.5727   -0.0832 H         1 <0>         0.1211
     25 H5         -0.8282   -0.3705   -0.0186 H         1 <0>         0.1299
     26 H6          4.4196   -0.5650    1.8135 H         1 <0>         0.1332
     27 H7          2.8824   -2.4023   -0.0942 H         1 <0>         0.1493
     28 H8          6.1855   -0.9821    0.7115 H         1 <0>         0.1521
     29 H9          8.3322   -2.1668    0.6545 H         1 <0>         0.1569
     30 H10         8.4247   -4.5827    0.3668 H         1 <0>         0.1563
     31 H11         4.4089   -8.7097   -0.2675 H         1 <0>         0.4451
     32 H12         6.0863   -8.6480   -0.1960 H         1 <0>         0.4307
     33 H13         1.9383   -4.5920   -0.4598 H         1 <0>         0.4271
     34 H14         2.4267   -3.6303    0.8283 H         1 <0>         0.4352
     35 H15         7.1470   -6.6264    0.0688 H         1 <0>         0.4406
@<TRIPOS>BOND
     1    1    6 ar
     2    1    2 ar
     3    1   21 1
     4    2    3 ar
     5    2   22 1
     6    3    4 ar
     7    3   23 1
     8    4    5 ar
     9    4    7 1
    10    5    6 ar
    11    5   24 1
    12    6   25 1
    13    7    8 2
    14    7   26 1
    15    8    9 1
    16    8   27 1
    17    9   14 ar
    18    9   10 ar
    19   10   11 ar
    20   10   28 1
    21   11   12 ar
    22   11   29 1
    23   12   13 ar
    24   12   30 1
    25   13   18 ar
    26   13   14 ar
    27   14   15 ar
    28   15   16 ar
    29   15   20 1
    30   16   17 ar
    31   17   18 ar
    32   17   19 1
    33   18   35 1
    34   19   31 1
    35   19   32 1
    36   20   33 1
    37   20   34 1
@<TRIPOS>MOLECULE
CHEMBL139430
   41    44     0     0     0
SMALL
USER_CHARGES

@<TRIPOS>ATOM
      1 C1          0.2703    1.4357    0.0372 C.3       1 <0>         0.0812
      2 N1          0.0021   -0.0041    0.0020 N.pl3     1 <0>        -0.5470
      3 C2          0.0041   -0.7441    1.1868 C.ar      1 <0>         0.1395
      4 C3          1.0075   -1.6957    1.4079 C.ar      1 <0>        -0.1114
      5 C4          1.0340   -2.4297    2.5513 C.ar      1 <0>        -0.0882
      6 C5          0.0442   -2.2370    3.5313 C.ar      1 <0>        -0.0496
      7 C6          0.0470   -2.9813    4.7232 C.ar      1 <0>        -0.1069
      8 C7         -0.9252   -2.7704    5.6521 C.ar      1 <0>        -0.1076
      9 C8         -1.9274   -1.8253    5.4405 C.ar      1 <0>        -0.1066
     10 C9         -1.9626   -1.0858    4.2986 C.ar      1 <0>        -0.1080
     11 C10        -0.9751   -1.2756    3.3160 C.ar      1 <0>        -0.0425
     12 C11        -0.9777   -0.5264    2.1283 C.ar      1 <0>        -0.0981
     13 C12        -0.2544   -0.6338   -1.2104 C.ar      1 <0>         0.4196
     14 C13        -0.0524    0.0710   -2.4051 C.ar      1 <0>        -0.1281
     15 C14        -0.3000   -0.5345   -3.6017 C.ar      1 <0>        -0.0553
     16 C15        -0.7565   -1.8659   -3.5917 C.ar      1 <0>         0.0921
     17 C16        -0.9395   -2.5196   -2.3521 C.ar      1 <0>         0.0750
     18 N2         -0.6770   -1.8821   -1.2114 N.ar      1 <0>        -0.4817
     19 C17        -1.4001   -3.8619   -2.3678 C.ar      1 <0>         0.5649
     20 N3         -1.6348   -4.4338   -3.5384 N.ar      1 <0>        -0.5856
     21 C18        -1.4483   -3.7792   -4.6809 C.ar      1 <0>         0.6847
     22 N4         -1.0221   -2.5314   -4.7239 N.ar      1 <0>        -0.5698
     23 N5         -1.7114   -4.4332   -5.8723 N.pl3     1 <0>        -0.7907
     24 N6         -1.5980   -4.5547   -1.1909 N.pl3     1 <0>        -0.7462
     25 H1          1.3410    1.6086   -0.0708 H         1 <0>         0.0730
     26 H2         -0.2609    1.9243   -0.7796 H         1 <0>         0.0815
     27 H3         -0.0698    1.8455    0.9883 H         1 <0>         0.0894
     28 H4          1.7706   -1.8486    0.6592 H         1 <0>         0.1201
     29 H5          1.8140   -3.1603    2.7069 H         1 <0>         0.1333
     30 H6          0.8169   -3.7175    4.9013 H         1 <0>         0.1308
     31 H7         -0.9202   -3.3445    6.5669 H         1 <0>         0.1284
     32 H8         -2.6873   -1.6779    6.1936 H         1 <0>         0.1283
     33 H9         -2.7451   -0.3569    4.1479 H         1 <0>         0.1290
     34 H10        -1.7457    0.2123    1.9527 H         1 <0>         0.1301
     35 H11         0.2985    1.0921   -2.3780 H         1 <0>         0.1680
     36 H12        -0.1502   -0.0066   -4.5319 H         1 <0>         0.1708
     37 H13        -2.0253   -5.3509   -5.8627 H         1 <0>         0.4442
     38 H14        -1.5819   -3.9737   -6.7167 H         1 <0>         0.4301
     39 H15        -1.4220   -4.1245   -0.3394 H         1 <0>         0.4409
     40 H16        -1.9131   -5.4717   -1.2150 H         1 <0>         0.4304
     41 H17        -0.9002   -2.0930   -5.5806 H         1 <0>         0.4381
@<TRIPOS>BOND
     1    1    2 1
     2    1   25 1
     3    1   26 1
     4    1   27 1
     5    2    3 1
     6    2   13 1
     7    3   12 ar
     8    3    4 ar
     9    4    5 ar
    10    4   28 1
    11    5    6 ar
    12    5   29 1
    13    6   11 ar
    14    6    7 ar
    15    7    8 ar
    16    7   30 1
    17    8    9 ar
    18    8   31 1
    19    9   10 ar
    20    9   32 1
    21   10   11 ar
    22   10   33 1
    23   11   12 ar
    24   12   34 1
    25   13   18 ar
    26   13   14 ar
    27   14   15 ar
    28   14   35 1
    29   15   16 ar
    30   15   36 1
    31   16   22 ar
    32   16   17 ar
    33   17   18 ar
    34   17   19 ar
    35   19   20 ar
    36   19   24 1
    37   20   21 ar
    38   21   22 ar
    39   21   23 1
    40   22   41 1
    41   23   37 1
    42   23   38 1
    43   24   39 1
    44   24   40 1
@<TRIPOS>MOLECULE
CHEMBL114354
   49    52     0     0     0
SMALL
USER_CHARGES

@<TRIPOS>ATOM
      1 C1         -0.0295    1.4556    0.1242 C.3       1 <0>         0.0799
      2 N1          0.0019   -0.0040    0.0020 N.pl3     1 <0>        -0.6111
      3 C2          0.0460   -0.8390    1.2049 C.3       1 <0>         0.1576
      4 C3         -1.3553   -1.0646    1.7114 C.ar      1 <0>        -0.1206
      5 C4         -2.4296   -0.5944    0.9845 C.ar      1 <0>        -0.1114
      6 C5         -3.7152   -0.8002    1.4485 C.ar      1 <0>        -0.1195
      7 C6         -3.9153   -1.4719    2.6370 C.ar      1 <0>        -0.1151
      8 C7         -2.8354   -1.9451    3.3706 C.ar      1 <0>        -0.0663
      9 C8         -1.5550   -1.7492    2.9031 C.ar      1 <0>        -0.0665
     10 C9         -0.3387   -2.2532    3.6349 C.3       1 <0>        -0.0850
     11 C10        -0.6829   -2.5820    5.0862 C.3       1 <0>        -0.1224
     12 C11        -1.9155   -3.4937    5.0967 C.3       1 <0>        -0.1210
     13 C12        -3.1256   -2.6631    4.6626 C.3       1 <0>        -0.0860
     14 C13        -0.0102   -0.6003   -1.2632 C.ar      1 <0>         0.2240
     15 C14        -0.1089   -1.9903   -1.3729 C.ar      1 <0>        -0.0901
     16 C15        -0.1229   -2.5974   -2.5921 C.ar      1 <0>        -0.0930
     17 C16        -0.0379   -1.8234   -3.7576 C.ar      1 <0>         0.1363
     18 C17         0.0619   -0.4149   -3.6539 C.ar      1 <0>        -0.1322
     19 C18         0.0698    0.1893   -2.3921 C.ar      1 <0>        -0.1439
     20 C19         0.1460    0.3431   -4.8485 C.ar      1 <0>         0.5559
     21 N2          0.1272   -0.3024   -6.0052 N.ar      1 <0>        -0.5947
     22 C20         0.0322   -1.6281   -6.0579 C.ar      1 <0>         0.6830
     23 N3         -0.0487   -2.3814   -4.9785 N.ar      1 <0>        -0.5732
     24 N4          0.0177   -2.2429   -7.2979 N.pl3     1 <0>        -0.7950
     25 N5          0.2444    1.7181   -4.8078 N.pl3     1 <0>        -0.7705
     26 H1          0.9898    1.8414    0.1335 H         1 <0>         0.0641
     27 H2         -0.5708    1.8794   -0.7216 H         1 <0>         0.0712
     28 H3         -0.5310    1.7318    1.0518 H         1 <0>         0.0823
     29 H4          0.5044   -1.7983    0.9647 H         1 <0>         0.0936
     30 H5          0.6339   -0.3378    1.9738 H         1 <0>         0.0987
     31 H6         -2.2665   -0.0670    0.0562 H         1 <0>         0.1174
     32 H7         -4.5602   -0.4362    0.8829 H         1 <0>         0.1212
     33 H8         -4.9200   -1.6307    2.9999 H         1 <0>         0.1230
     34 H9          0.0313   -3.1516    3.1409 H         1 <0>         0.0773
     35 H10         0.4364   -1.4872    3.6140 H         1 <0>         0.0743
     36 H11         0.1568   -3.0946    5.5554 H         1 <0>         0.0710
     37 H12        -0.9019   -1.6624    5.6288 H         1 <0>         0.0673
     38 H13        -1.7643   -4.3234    4.4062 H         1 <0>         0.0663
     39 H14        -2.0788   -3.8785    6.1034 H         1 <0>         0.0714
     40 H15        -3.3677   -1.9318    5.4337 H         1 <0>         0.0802
     41 H16        -3.9763   -3.3295    4.5202 H         1 <0>         0.0761
     42 H17        -0.1747   -2.5916   -0.4782 H         1 <0>         0.1527
     43 H18        -0.1989   -3.6725   -2.6607 H         1 <0>         0.1562
     44 H19         0.1415    1.2632   -2.3023 H         1 <0>         0.1467
     45 H20         0.0762   -1.7081   -8.1050 H         1 <0>         0.4427
     46 H21        -0.0509   -3.2085   -7.3597 H         1 <0>         0.4290
     47 H22         0.2567    2.1784   -3.9541 H         1 <0>         0.4298
     48 H23         0.3012    2.2249   -5.6330 H         1 <0>         0.4307
     49 H24        -0.1165   -3.3449   -5.0673 H         1 <0>         0.4375
@<TRIPOS>BOND
     1    1    2 1
     2    1   26 1
     3    1   27 1
     4    1   28 1
     5    2    3 1
     6    2   14 1
     7    3    4 1
     8    3   29 1
     9    3   30 1
    10    4    9 ar
    11    4    5 ar
    12    5    6 ar
    13    5   31 1
    14    6    7 ar
    15    6   32 1
    16    7    8 ar
    17    7   33 1
    18    8   13 1
    19    8    9 ar
    20    9   10 1
    21   10   11 1
    22   10   34 1
    23   10   35 1
    24   11   12 1
    25   11   36 1
    26   11   37 1
    27   12   13 1
    28   12   38 1
    29   12   39 1
    30   13   40 1
    31   13   41 1
    32   14   19 ar
    33   14   15 ar
    34   15   16 ar
    35   15   42 1
    36   16   17 ar
    37   16   43 1
    38   17   23 ar
    39   17   18 ar
    40   18   19 ar
    41   18   20 ar
    42   19   44 1
    43   20   21 ar
    44   20   25 1
    45   21   22 ar
    46   22   23 ar
    47   22   24 1
    48   23   49 1
    49   24   45 1
    50   24   46 1
    51   25   47 1
    52   25   48 1
@<TRIPOS>MOLECULE
CHEMBL371860
   51    53     0     0     0
SMALL
USER_CHARGES

@<TRIPOS>ATOM
      1 C1         -0.0187    1.5258    0.0104 C.3       1 <0>        -0.1452
      2 C2          0.0021   -0.0041    0.0020 C.3       1 <0>        -0.0642
      3 C3         -1.4117   -0.5257    0.0127 C.2       1 <0>         0.1051
      4 C4         -2.1844   -0.7044   -1.0787 C.2       1 <0>        -0.1326
      5 C5         -3.4683   -1.2243   -0.6023 C.2       1 <0>        -0.2804
      6 C6         -3.3630   -1.3213    0.7928 C.2       1 <0>         0.3480
      7 N1         -2.1132   -0.8995    1.1380 N.pl3     1 <0>        -0.5424
      8 H1         -1.7688   -0.8655    2.0442 H         1 <0>         0.4208
      9 N2         -4.4105   -1.7765    1.4967 N.2       1 <0>        -0.5922
     10 C7         -5.5269   -2.1308    0.9028 C.2       1 <0>         0.6553
     11 N3         -5.6837   -2.0574   -0.4499 N.am      1 <0>        -0.6620
     12 C8         -4.6731   -1.6082   -1.2281 C.2       1 <0>         0.5763
     13 O1         -4.7999   -1.5367   -2.4384 O.2       1 <0>        -0.5000
     14 N4         -6.5693   -2.5901    1.6682 N.pl3     1 <0>        -0.8240
     15 S1         -1.7364   -0.3764   -2.7510 S.3       1 <0>         0.0441
     16 C9         -1.0389   -1.8945   -3.3110 C.ar      1 <0>        -0.0879
     17 C10        -0.9661   -2.9863   -2.4485 C.ar      1 <0>        -0.1302
     18 C11        -0.4259   -4.1644   -2.8799 C.ar      1 <0>        -0.0502
     19 C12         0.0540   -4.2741   -4.1890 C.ar      1 <0>        -0.1107
     20 C13        -0.0208   -3.1767   -5.0527 C.ar      1 <0>        -0.0684
     21 C14        -0.5665   -2.0026   -4.6174 C.ar      1 <0>        -0.1048
     22 C15         0.6381   -5.5444   -4.6575 C.2       1 <0>         0.5523
     23 O2          0.7030   -6.4978   -3.9055 O.2       1 <0>        -0.5565
     24 N5          1.1002   -5.6488   -5.9193 N.am      1 <0>        -0.6755
     25 C16         1.6805   -6.9108   -6.3848 C.3       1 <0>         0.0727
     26 H2          1.1516   -7.7455   -5.9248 H         1 <0>         0.0775
     27 C17         1.5507   -7.0013   -7.9066 C.3       1 <0>        -0.0802
     28 C18         0.0709   -7.0709   -8.2890 C.3       1 <0>        -0.1783
     29 C19        -0.0570   -7.1600   -9.7879 C.2       1 <0>         0.4912
     30 O3          0.9427   -7.1671  -10.4857 O.co2     1 <0>        -0.6973
     31 O4         -1.1603   -7.2249  -10.3028 O.co2     1 <0>        -0.7202
     32 C20         3.1367   -6.9660   -6.0007 C.2       1 <0>         0.4960
     33 O5          3.6429   -6.0372   -5.3944 O.co2     1 <0>        -0.6967
     34 O6          3.8087   -7.9394   -6.2964 O.co2     1 <0>        -0.7005
     35 H3          1.0039    1.9031    0.0027 H         1 <0>         0.0662
     36 H4         -0.5459    1.8868   -0.8726 H         1 <0>         0.0670
     37 H5         -0.5289    1.8773    0.9072 H         1 <0>         0.0503
     38 H6          0.5123   -0.3556   -0.8948 H         1 <0>         0.1031
     39 H7          0.5293   -0.3651    0.8851 H         1 <0>         0.0774
     40 H8         -6.4745   -2.6490    2.6317 H         1 <0>         0.4262
     41 H9         -7.4010   -2.8560    1.2455 H         1 <0>         0.4153
     42 H10        -1.3368   -2.9009   -1.4377 H         1 <0>         0.1183
     43 H11        -0.3691   -5.0101   -2.2107 H         1 <0>         0.1327
     44 H12         0.3489   -3.2586   -6.0642 H         1 <0>         0.1339
     45 H13        -0.6280   -1.1559   -5.2850 H         1 <0>         0.1301
     46 H14         1.0484   -4.8883   -6.5192 H         1 <0>         0.3896
     47 H15         2.0028   -6.1206   -8.3628 H         1 <0>         0.0553
     48 H16         2.0603   -7.8968   -8.2622 H         1 <0>         0.0789
     49 H17        -0.3812   -7.9516   -7.8327 H         1 <0>         0.0518
     50 H18        -0.4388   -6.1754   -7.9334 H         1 <0>         0.0507
     51 H19        -6.5225   -2.3280   -0.8550 H         1 <0>         0.4145
@<TRIPOS>BOND
     1    1    2 1
     2    1   35 1
     3    1   36 1
     4    1   37 1
     5    2    3 1
     6    2   38 1
     7    2   39 1
     8    3    7 1
     9    3    4 2
    10    4    5 1
    11    4   15 1
    12    5   12 1
    13    5    6 2
    14    6    7 1
    15    6    9 1
    16    7    8 1
    17    9   10 2
    18   10   11 1
    19   10   14 1
    20   11   12 am
    21   11   51 1
    22   12   13 2
    23   14   40 1
    24   14   41 1
    25   15   16 1
    26   16   21 ar
    27   16   17 ar
    28   17   18 ar
    29   17   42 1
    30   18   19 ar
    31   18   43 1
    32   19   20 ar
    33   19   22 1
    34   20   21 ar
    35   20   44 1
    36   21   45 1
    37   22   23 2
    38   22   24 am
    39   24   25 1
    40   24   46 1
    41   25   26 1
    42   25   27 1
    43   25   32 1
    44   27   28 1
    45   27   47 1
    46   27   48 1
    47   28   29 1
    48   28   49 1
    49   28   50 1
    50   29   30 2
    51   29   31 1
    52   32   33 2
    53   32   34 1
@<TRIPOS>MOLECULE
CHEMBL371860__1
   51    53     0     0     0
SMALL
USER_CHARGES

@<TRIPOS>ATOM
      1 C1         -0.0187    1.5258    0.0104 C.3       1 <0>        -0.1457
      2 C2          0.0021   -0.0041    0.0020 C.3       1 <0>        -0.0620
      3 C3          0.7309   -0.5033    1.2229 C.2       1 <0>         0.1027
      4 C4          0.1788   -0.6928    2.4403 C.2       1 <0>        -0.1369
      5 C5          1.2499   -1.1812    3.3091 C.2       1 <0>        -0.2289
      6 C6          2.3970   -1.2493    2.5226 C.2       1 <0>         0.2833
      7 N1          2.0640   -0.8440    1.2721 N.pl3     1 <0>        -0.5473
      8 H1          2.6768   -0.7985    0.5215 H         1 <0>         0.4176
      9 N2          3.5632   -1.6847    3.1064 N.pl3     1 <0>        -0.6299
     10 C7          3.5898   -2.0381    4.4174 C.2       1 <0>         0.6747
     11 N3          2.5264   -1.9870    5.1903 N.2       1 <0>        -0.6290
     12 C8          1.3394   -1.5752    4.7147 C.2       1 <0>         0.5596
     13 O1          0.3578   -1.5305    5.4395 O.2       1 <0>        -0.4777
     14 N4          4.7728   -2.4659    4.9573 N.pl3     1 <0>        -0.8223
     15 S1         -1.4999   -0.4076    2.8934 S.3       1 <0>         0.0520
     16 C9         -2.2946   -1.9480    2.5764 C.ar      1 <0>        -0.0875
     17 C10        -1.5572   -3.0221    2.0824 C.ar      1 <0>        -0.1299
     18 C11        -2.1706   -4.2174    1.8357 C.ar      1 <0>        -0.0497
     19 C12        -3.5401   -4.3624    2.0793 C.ar      1 <0>        -0.1127
     20 C13        -4.2778   -3.2826    2.5751 C.ar      1 <0>        -0.0668
     21 C14        -3.6579   -2.0913    2.8254 C.ar      1 <0>        -0.1036
     22 C15        -4.2052   -5.6514    1.8135 C.2       1 <0>         0.5456
     23 O2         -3.5629   -6.5895    1.3820 O.2       1 <0>        -0.5554
     24 N5         -5.5251   -5.7898    2.0488 N.am      1 <0>        -0.6749
     25 C16        -6.1859   -7.0703    1.7847 C.3       1 <0>         0.0737
     26 H2         -5.5006   -7.8867    2.0130 H         1 <0>         0.0775
     27 C17        -7.4333   -7.1911    2.6622 C.3       1 <0>        -0.0821
     28 C18        -7.0183   -7.2457    4.1339 C.3       1 <0>        -0.1778
     29 C19        -8.2470   -7.3646    4.9982 C.2       1 <0>         0.4914
     30 O3         -9.3522   -7.4022    4.4848 O.co2     1 <0>        -0.6983
     31 O4         -8.1359   -7.4232    6.2110 O.co2     1 <0>        -0.7190
     32 C20        -6.5843   -7.1400    0.3329 C.2       1 <0>         0.4989
     33 O5         -6.6306   -8.2177   -0.2354 O.co2     1 <0>        -0.7020
     34 O6         -6.8603   -6.1188   -0.2732 O.co2     1 <0>        -0.6985
     35 H3          1.0039    1.9031    0.0027 H         1 <0>         0.0492
     36 H4         -0.5459    1.8868   -0.8726 H         1 <0>         0.0671
     37 H5         -0.5289    1.8773    0.9072 H         1 <0>         0.0685
     38 H6         -1.0205   -0.3814    0.0098 H         1 <0>         0.1051
     39 H7          0.5123   -0.3556   -0.8948 H         1 <0>         0.0766
     40 H8          5.5693   -2.5117    4.4056 H         1 <0>         0.4089
     41 H9          4.8146   -2.7233    5.8916 H         1 <0>         0.4329
     42 H10        -0.4997   -2.9094    1.8941 H         1 <0>         0.1169
     43 H11        -1.5986   -5.0495    1.4525 H         1 <0>         0.1327
     44 H12        -5.3355   -3.3916    2.7638 H         1 <0>         0.1354
     45 H13        -4.2261   -1.2585    3.2128 H         1 <0>         0.1313
     46 H14        -6.0375   -5.0415    2.3929 H         1 <0>         0.3919
     47 H15        -8.0779   -6.3274    2.4983 H         1 <0>         0.0605
     48 H16        -7.9732   -8.1018    2.4030 H         1 <0>         0.0723
     49 H17        -6.3738   -8.1093    4.2978 H         1 <0>         0.0525
     50 H18        -6.4784   -6.3349    4.3931 H         1 <0>         0.0520
     51 H19         4.3742   -1.7403    2.5771 H         1 <0>         0.4070
@<TRIPOS>BOND
     1    1    2 1
     2    1   35 1
     3    1   36 1
     4    1   37 1
     5    2    3 1
     6    2   38 1
     7    2   39 1
     8    3    7 1
     9    3    4 2
    10    4    5 1
    11    4   15 1
    12    5   12 1
    13    5    6 2
    14    6    7 1
    15    6    9 1
    16    7    8 1
    17    9   10 1
    18    9   51 1
    19   10   11 2
    20   10   14 1
    21   11   12 1
    22   12   13 2
    23   14   40 1
    24   14   41 1
    25   15   16 1
    26   16   21 ar
    27   16   17 ar
    28   17   18 ar
    29   17   42 1
    30   18   19 ar
    31   18   43 1
    32   19   20 ar
    33   19   22 1
    34   20   21 ar
    35   20   44 1
    36   21   45 1
    37   22   23 2
    38   22   24 am
    39   24   25 1
    40   24   46 1
    41   25   26 1
    42   25   27 1
    43   25   32 1
    44   27   28 1
    45   27   47 1
    46   27   48 1
    47   28   29 1
    48   28   49 1
    49   28   50 1
    50   29   30 2
    51   29   31 1
    52   32   33 2
    53   32   34 1
@<TRIPOS>MOLECULE
CHEMBL55727
   44    47     0     0     0
SMALL
USER_CHARGES

@<TRIPOS>ATOM
      1 C1         -0.0178    1.4608    0.0101 C.3       1 <0>         0.0904
      2 N1          0.0021   -0.0041    0.0020 N.pl3     1 <0>        -0.6247
      3 C2          0.0241   -0.7433    1.2666 C.3       1 <0>         0.1671
      4 C3         -1.3889   -1.0161    1.7137 C.ar      1 <0>         0.1320
      5 C4         -1.9785   -2.2374    1.3945 C.ar      1 <0>        -0.0705
      6 C5         -3.2592   -2.5027    1.7919 C.ar      1 <0>        -0.0902
      7 C6         -3.9430   -1.5145    2.5205 C.ar      1 <0>         0.1457
      8 C7         -3.2809   -0.2973    2.8085 C.ar      1 <0>         0.0237
      9 N2         -2.0316   -0.0994    2.3988 N.ar      1 <0>        -0.4067
     10 C8         -4.0185    0.7128    3.5689 C.ar      1 <0>         0.5736
     11 N3         -5.2579    0.4233    3.9387 N.ar      1 <0>        -0.5882
     12 C9         -5.8174   -0.7430    3.6323 C.ar      1 <0>         0.6967
     13 N4         -5.1990   -1.6866    2.9511 N.ar      1 <0>        -0.5811
     14 N5         -7.1147   -0.9786    4.0507 N.pl3     1 <0>        -0.7845
     15 N6         -3.4433    1.9240    3.8900 N.pl3     1 <0>        -0.7393
     16 C10        -0.0000   -0.6956   -1.2109 C.ar      1 <0>         0.2055
     17 C11         0.0132   -2.0959   -1.2103 C.ar      1 <0>        -0.1819
     18 C12         0.0115   -2.7947   -2.3759 C.ar      1 <0>        -0.0558
     19 C13        -0.0042   -2.1100   -3.6038 C.ar      1 <0>        -0.0940
     20 C14        -0.0069   -2.8066   -4.8244 C.ar      1 <0>        -0.0919
     21 C15        -0.0226   -2.1139   -5.9959 C.ar      1 <0>        -0.1315
     22 C16        -0.0362   -0.7203   -6.0057 C.ar      1 <0>        -0.0973
     23 C17        -0.0336   -0.0118   -4.8438 C.ar      1 <0>        -0.1257
     24 C18        -0.0181   -0.6926   -3.6138 C.ar      1 <0>        -0.0019
     25 C19        -0.0208    0.0064   -2.3958 C.ar      1 <0>        -0.1943
     26 H1          1.0048    1.8381    0.0023 H         1 <0>         0.0578
     27 H2         -0.5450    1.8219   -0.8730 H         1 <0>         0.0709
     28 H3         -0.5280    1.8123    0.9069 H         1 <0>         0.0690
     29 H4          0.5496   -1.6879    1.1262 H         1 <0>         0.1076
     30 H5          0.5371   -0.1514    2.0246 H         1 <0>         0.1068
     31 H6         -1.4238   -2.9743    0.8326 H         1 <0>         0.1683
     32 H7         -3.7317   -3.4439    1.5528 H         1 <0>         0.1717
     33 H8         -7.5925   -0.3011    4.5542 H         1 <0>         0.4462
     34 H9         -2.5348    2.1186    3.6113 H         1 <0>         0.4417
     35 H10        -3.9472    2.5816    4.3946 H         1 <0>         0.4341
     36 H11         0.0253   -2.6279   -0.2705 H         1 <0>         0.1207
     37 H12         0.0226   -3.8746   -2.3590 H         1 <0>         0.1308
     38 H13         0.0039   -3.8865   -4.8327 H         1 <0>         0.1262
     39 H14        -0.0243   -2.6524   -6.9320 H         1 <0>         0.1239
     40 H15        -0.0485   -0.1950   -6.9493 H         1 <0>         0.1242
     41 H16        -0.0435    1.0679   -4.8665 H         1 <0>         0.1252
     42 H17        -0.0354    1.0863   -2.3883 H         1 <0>         0.1278
     43 H18        -7.5466   -1.8214    3.8405 H         1 <0>         0.4319
     44 H19        -5.6608   -2.5176    2.7584 H         1 <0>         0.4400
@<TRIPOS>BOND
     1    1    2 1
     2    1   26 1
     3    1   27 1
     4    1   28 1
     5    2    3 1
     6    2   16 1
     7    3    4 1
     8    3   29 1
     9    3   30 1
    10    4    9 ar
    11    4    5 ar
    12    5    6 ar
    13    5   31 1
    14    6    7 ar
    15    6   32 1
    16    7   13 ar
    17    7    8 ar
    18    8    9 ar
    19    8   10 ar
    20   10   11 ar
    21   10   15 1
    22   11   12 ar
    23   12   13 ar
    24   12   14 1
    25   13   44 1
    26   14   33 1
    27   14   43 1
    28   15   34 1
    29   15   35 1
    30   16   25 ar
    31   16   17 ar
    32   17   18 ar
    33   17   36 1
    34   18   19 ar
    35   18   37 1
    36   19   24 ar
    37   19   20 ar
    38   20   21 ar
    39   20   38 1
    40   21   22 ar
    41   21   39 1
    42   22   23 ar
    43   22   40 1
    44   23   24 ar
    45   23   41 1
    46   24   25 ar
    47   25   42 1
@<TRIPOS>MOLECULE
CHEMBL34641
   51    53     0     0     0
SMALL
USER_CHARGES

@<TRIPOS>ATOM
      1 C1         -0.0173    1.4248    0.0099 C.3       1 <0>         0.0259
      2 O1          0.0021   -0.0041    0.0020 O.3       1 <0>        -0.3134
      3 C2         -1.2000   -0.6373    0.0101 C.ar      1 <0>         0.1311
      4 C3         -2.3737    0.1050    0.0196 C.ar      1 <0>        -0.1993
      5 C4         -3.5951   -0.5338    0.0282 C.ar      1 <0>        -0.0740
      6 C5         -3.6513   -1.9286    0.0270 C.ar      1 <0>        -0.0769
      7 C6         -2.4696   -2.6710    0.0170 C.ar      1 <0>        -0.0726
      8 C7         -1.2517   -2.0247    0.0031 C.ar      1 <0>        -0.1110
      9 C8          0.0249   -2.8253   -0.0134 C.3       1 <0>        -0.0031
     10 C9          0.5298   -2.9949    1.3964 C.ar      1 <0>        -0.3007
     11 C10         1.4677   -2.1265    1.9200 C.ar      1 <0>         0.2270
     12 N1          1.8911   -2.3023    3.1631 N.ar      1 <0>        -0.6085
     13 C11         1.4275   -3.2964    3.9062 C.ar      1 <0>         0.5983
     14 N2          0.5284   -4.1506    3.4416 N.ar      1 <0>        -0.6281
     15 C12         0.0557   -4.0299    2.2050 C.ar      1 <0>         0.4861
     16 N3         -0.8891   -4.9214    1.7236 N.pl3     1 <0>        -0.8347
     17 N4          1.8950   -3.4463    5.2002 N.pl3     1 <0>        -0.8243
     18 C13        -4.9587   -2.6173    0.0368 C.2       1 <0>        -0.1175
     19 C14        -6.0804   -1.9104    0.0467 C.2       1 <0>        -0.1211
     20 C15        -7.4137   -2.6127    0.0567 C.3       1 <0>         0.0795
     21 O2         -8.2714   -1.9930    1.0170 O.3       1 <0>        -0.2602
     22 C16        -9.5183   -2.5085    1.1522 C.ar      1 <0>         0.1563
     23 C17        -9.9112   -3.5933    0.3819 C.ar      1 <0>        -0.2341
     24 C18       -11.1807   -4.1173    0.5209 C.ar      1 <0>        -0.0905
     25 C19       -12.0721   -3.5663    1.4280 C.ar      1 <0>        -0.1795
     26 C20       -11.7004   -2.4892    2.2015 C.ar      1 <0>        -0.0499
     27 C21       -10.4153   -1.9511    2.0758 C.ar      1 <0>        -0.1670
     28 C22       -10.0089   -0.8038    2.9029 C.2       1 <0>         0.5213
     29 O3        -10.7942   -0.3207    3.7071 O.co2     1 <0>        -0.6964
     30 O4         -8.8857   -0.3330    2.7864 O.co2     1 <0>        -0.6682
     31 H1          1.0053    1.8021    0.0021 H         1 <0>         0.0994
     32 H2         -0.5445    1.7859   -0.8732 H         1 <0>         0.0550
     33 H3         -0.5275    1.7763    0.9067 H         1 <0>         0.0557
     34 H4         -2.3294    1.1840    0.0205 H         1 <0>         0.1296
     35 H5         -4.5075    0.0441    0.0363 H         1 <0>         0.1321
     36 H6         -2.5090   -3.7503    0.0161 H         1 <0>         0.1226
     37 H7         -0.1663   -3.8050   -0.4511 H         1 <0>         0.0707
     38 H8          0.7743   -2.3020   -0.6072 H         1 <0>         0.0874
     39 H9          1.8521   -1.3132    1.3224 H         1 <0>         0.1651
     40 H10        -1.2262   -4.8292    0.8188 H         1 <0>         0.4090
     41 H11        -1.2135   -5.6378    2.2914 H         1 <0>         0.4058
     42 H12         2.5538   -2.8277    5.5526 H         1 <0>         0.4133
     43 H13         1.5638   -4.1699    5.7548 H         1 <0>         0.4116
     44 H14        -5.0006   -3.6965    0.0358 H         1 <0>         0.1182
     45 H15        -6.0385   -0.8312    0.0477 H         1 <0>         0.1251
     46 H16        -7.8671   -2.5456   -0.9323 H         1 <0>         0.0671
     47 H17        -7.2704   -3.6606    0.3202 H         1 <0>         0.0603
     48 H18        -9.2231   -4.0282   -0.3278 H         1 <0>         0.1182
     49 H19       -11.4814   -4.9619   -0.0813 H         1 <0>         0.1135
     50 H20       -13.0632   -3.9834    1.5284 H         1 <0>         0.1145
     51 H21       -12.3987   -2.0632    2.9067 H         1 <0>         0.1314
@<TRIPOS>BOND
     1    1    2 1
     2    1   31 1
     3    1   32 1
     4    1   33 1
     5    2    3 1
     6    3    8 ar
     7    3    4 ar
     8    4    5 ar
     9    4   34 1
    10    5    6 ar
    11    5   35 1
    12    6    7 ar
    13    6   18 1
    14    7    8 ar
    15    7   36 1
    16    8    9 1
    17    9   10 1
    18    9   37 1
    19    9   38 1
    20   10   15 ar
    21   10   11 ar
    22   11   12 ar
    23   11   39 1
    24   12   13 ar
    25   13   14 ar
    26   13   17 1
    27   14   15 ar
    28   15   16 1
    29   16   40 1
    30   16   41 1
    31   17   42 1
    32   17   43 1
    33   18   19 2
    34   18   44 1
    35   19   20 1
    36   19   45 1
    37   20   21 1
    38   20   46 1
    39   20   47 1
    40   21   22 1
    41   22   27 ar
    42   22   23 ar
    43   23   24 ar
    44   23   48 1
    45   24   25 ar
    46   24   49 1
    47   25   26 ar
    48   25   50 1
    49   26   27 ar
    50   26   51 1
    51   27   28 1
    52   28   29 2
    53   28   30 1
@<TRIPOS>MOLECULE
CHEMBL34641__1
   52    54     0     0     0
SMALL
USER_CHARGES

@<TRIPOS>ATOM
      1 C1         -0.0173    1.4248    0.0099 C.3       1 <0>         0.0224
      2 O1          0.0021   -0.0041    0.0020 O.3       1 <0>        -0.3254
      3 C2         -1.2000   -0.6373    0.0101 C.ar      1 <0>         0.1277
      4 C3         -2.3737    0.1050    0.0196 C.ar      1 <0>        -0.1909
      5 C4         -3.5951   -0.5338    0.0282 C.ar      1 <0>        -0.0653
      6 C5         -3.6513   -1.9286    0.0270 C.ar      1 <0>        -0.0601
      7 C6         -2.4696   -2.6710    0.0170 C.ar      1 <0>        -0.0775
      8 C7         -1.2517   -2.0247    0.0031 C.ar      1 <0>        -0.1336
      9 C8          0.0249   -2.8253   -0.0134 C.3       1 <0>        -0.0167
     10 C9          0.5298   -2.9949    1.3964 C.ar      1 <0>        -0.2159
     11 C10         1.4677   -2.1265    1.9200 C.ar      1 <0>         0.2089
     12 N1          1.8911   -2.3023    3.1631 N.ar      1 <0>        -0.5703
     13 C11         1.4279   -3.2967    3.9061 C.ar      1 <0>         0.6596
     14 N2          0.5287   -4.1509    3.4414 N.ar      1 <0>        -0.5736
     15 C12         0.0557   -4.0299    2.2050 C.ar      1 <0>         0.5350
     16 N3         -0.8891   -4.9214    1.7236 N.pl3     1 <0>        -0.7762
     17 N4          1.8956   -3.4468    5.1999 N.pl3     1 <0>        -0.7951
     18 C13        -4.9587   -2.6173    0.0368 C.2       1 <0>        -0.1390
     19 C14        -6.0804   -1.9104    0.0467 C.2       1 <0>        -0.0978
     20 C15        -7.4137   -2.6127    0.0567 C.3       1 <0>         0.0744
     21 O2         -8.2714   -1.9930    1.0170 O.3       1 <0>        -0.2611
     22 C16        -9.5183   -2.5085    1.1522 C.ar      1 <0>         0.1524
     23 C17        -9.9112   -3.5933    0.3819 C.ar      1 <0>        -0.2334
     24 C18       -11.1807   -4.1173    0.5209 C.ar      1 <0>        -0.0899
     25 C19       -12.0721   -3.5663    1.4280 C.ar      1 <0>        -0.1755
     26 C20       -11.7004   -2.4892    2.2015 C.ar      1 <0>        -0.0489
     27 C21       -10.4153   -1.9511    2.0758 C.ar      1 <0>        -0.1658
     28 C22       -10.0089   -0.8038    2.9029 C.2       1 <0>         0.5221
     29 O3        -10.7942   -0.3207    3.7071 O.co2     1 <0>        -0.6924
     30 O4         -8.8857   -0.3330    2.7864 O.co2     1 <0>        -0.6731
     31 H1          1.0053    1.8021    0.0021 H         1 <0>         0.1029
     32 H2         -0.5445    1.7859   -0.8732 H         1 <0>         0.0622
     33 H3         -0.5275    1.7763    0.9067 H         1 <0>         0.0588
     34 H4         -2.3294    1.1840    0.0205 H         1 <0>         0.1352
     35 H5         -4.5075    0.0441    0.0363 H         1 <0>         0.1387
     36 H6         -2.5090   -3.7503    0.0161 H         1 <0>         0.1236
     37 H7         -0.1663   -3.8050   -0.4511 H         1 <0>         0.0932
     38 H8          0.7743   -2.3020   -0.6072 H         1 <0>         0.1094
     39 H9          1.8521   -1.3132    1.3224 H         1 <0>         0.2150
     40 H10        -1.2262   -4.8292    0.8188 H         1 <0>         0.4288
     41 H11        -1.2135   -5.6378    2.2914 H         1 <0>         0.4282
     42 H12         2.5544   -2.8282    5.5523 H         1 <0>         0.4289
     43 H13         1.5646   -4.1706    5.7544 H         1 <0>         0.4438
     44 H14        -5.0006   -3.6965    0.0358 H         1 <0>         0.1215
     45 H15        -6.0385   -0.8312    0.0477 H         1 <0>         0.1266
     46 H16        -7.8671   -2.5456   -0.9323 H         1 <0>         0.0711
     47 H17        -7.2704   -3.6606    0.3202 H         1 <0>         0.0619
     48 H18        -9.2231   -4.0282   -0.3278 H         1 <0>         0.1175
     49 H19       -11.4814   -4.9619   -0.0813 H         1 <0>         0.1151
     50 H20       -13.0632   -3.9834    1.5284 H         1 <0>         0.1167
     51 H21       -12.3987   -2.0632    2.9067 H         1 <0>         0.1331
     52 H22         2.5497   -1.6946    3.5343 H         1 <0>         0.4424
@<TRIPOS>BOND
     1    1    2 1
     2    1   31 1
     3    1   32 1
     4    1   33 1
     5    2    3 1
     6    3    8 ar
     7    3    4 ar
     8    4    5 ar
     9    4   34 1
    10    5    6 ar
    11    5   35 1
    12    6    7 ar
    13    6   18 1
    14    7    8 ar
    15    7   36 1
    16    8    9 1
    17    9   10 1
    18    9   37 1
    19    9   38 1
    20   10   15 ar
    21   10   11 ar
    22   11   12 ar
    23   11   39 1
    24   12   13 ar
    25   12   52 1
    26   13   14 ar
    27   13   17 1
    28   14   15 ar
    29   15   16 1
    30   16   40 1
    31   16   41 1
    32   17   42 1
    33   17   43 1
    34   18   19 2
    35   18   44 1
    36   19   20 1
    37   19   45 1
    38   20   21 1
    39   20   46 1
    40   20   47 1
    41   21   22 1
    42   22   27 ar
    43   22   23 ar
    44   23   24 ar
    45   23   48 1
    46   24   25 ar
    47   24   49 1
    48   25   26 ar
    49   25   50 1
    50   26   27 ar
    51   26   51 1
    52   27   28 1
    53   28   29 2
    54   28   30 1
@<TRIPOS>MOLECULE
CHEMBL136133
   61    64     0     0     0
SMALL
USER_CHARGES

@<TRIPOS>ATOM
      1 C1         -0.0178    1.4608    0.0101 C.3       1 <0>         0.0925
      2 N1          0.0021   -0.0041    0.0020 N.pl3     1 <0>        -0.6193
      3 C2          0.0241   -0.7433    1.2666 C.3       1 <0>         0.1823
      4 C3         -1.3889   -1.0161    1.7137 C.ar      1 <0>         0.0271
      5 C4         -1.9892   -2.2351    1.3999 C.ar      1 <0>         0.1547
      6 N2         -3.2219   -2.4965    1.7797 N.ar      1 <0>        -0.4371
      7 C5         -3.9051   -1.5830    2.4739 C.ar      1 <0>         0.3733
      8 C6         -3.2902   -0.3458    2.7901 C.ar      1 <0>        -0.0918
      9 N3         -2.0425   -0.1038    2.4012 N.ar      1 <0>        -0.3712
     10 C7         -4.0706    0.6301    3.5527 C.ar      1 <0>         0.5436
     11 N4         -5.3055    0.2953    3.9004 N.ar      1 <0>        -0.6292
     12 C8         -5.8196   -0.8850    3.5693 C.ar      1 <0>         0.6377
     13 N5         -5.1609   -1.7987    2.8845 N.ar      1 <0>        -0.5995
     14 N6         -7.1130   -1.1692    3.9639 N.pl3     1 <0>        -0.8087
     15 N7         -3.5402    1.8539    3.8976 N.pl3     1 <0>        -0.7936
     16 C9          0.0000   -0.6928   -1.2059 C.ar      1 <0>         0.2317
     17 C10         0.0132   -2.0849   -1.2118 C.ar      1 <0>        -0.2093
     18 C11         0.0112   -2.7693   -2.4056 C.ar      1 <0>        -0.0080
     19 C12        -0.0041   -2.0653   -3.6133 C.ar      1 <0>        -0.1731
     20 C13        -0.0173   -0.6674   -3.6040 C.ar      1 <0>        -0.0324
     21 C14        -0.0210    0.0112   -2.4068 C.ar      1 <0>        -0.2000
     22 C15        -0.0058   -2.7960   -4.8948 C.2       1 <0>         0.5669
     23 O1          0.0061   -4.0119   -4.9015 O.2       1 <0>        -0.5444
     24 N8         -0.0205   -2.1158   -6.0583 N.am      1 <0>        -0.6996
     25 C16        -0.0222   -2.8414   -7.3310 C.3       1 <0>         0.0817
     26 C17         0.5711   -1.9524   -8.4257 C.3       1 <0>        -0.0511
     27 C18         2.0225   -1.6830   -8.1223 C.2       1 <0>         0.0390
     28 C19         2.4957   -0.7142   -7.3154 C.2       1 <0>         0.0284
     29 N9          3.8600   -0.8249   -7.3216 N.pl3     1 <0>        -0.3575
     30 C20         4.1732   -1.8582   -8.1326 C.cat     1 <0>         0.2702
     31 N10         3.0691   -2.3698   -8.6040 N.pl3     1 <0>        -0.4790
     32 C21         4.8041    0.0199   -6.5859 C.3       1 <0>         0.0124
     33 C22         5.0607   -0.5792   -5.2271 C.2       1 <0>         0.4835
     34 O2          4.5064   -1.6157   -4.9033 O.co2     1 <0>        -0.6577
     35 O3          5.8226   -0.0274   -4.4516 O.co2     1 <0>        -0.6627
     36 C23        -1.4367   -3.2117   -7.6962 C.2       1 <0>         0.4932
     37 O4         -2.3634   -2.5041   -7.3399 O.co2     1 <0>        -0.6782
     38 O5         -1.6542   -4.2188   -8.3480 O.co2     1 <0>        -0.6888
     39 H1          1.0048    1.8381    0.0023 H         1 <0>         0.0534
     40 H2         -0.5450    1.8219   -0.8730 H         1 <0>         0.0680
     41 H3         -0.5280    1.8123    0.9069 H         1 <0>         0.0685
     42 H4          0.5496   -1.6879    1.1262 H         1 <0>         0.1025
     43 H5          0.5371   -0.1514    2.0246 H         1 <0>         0.0978
     44 H6         -1.4361   -2.9733    0.8382 H         1 <0>         0.1801
     45 H7         -7.6209   -0.5150    4.4689 H         1 <0>         0.4156
     46 H8         -7.5132   -2.0229    3.7358 H         1 <0>         0.4195
     47 H9         -2.6346    2.0814    3.6347 H         1 <0>         0.4250
     48 H10        -4.0722    2.4880    4.4032 H         1 <0>         0.4147
     49 H11         0.0253   -2.6282   -0.2785 H         1 <0>         0.1242
     50 H12         0.0217   -3.8493   -2.4096 H         1 <0>         0.1351
     51 H13        -0.0287   -0.1208   -4.5353 H         1 <0>         0.1200
     52 H14        -0.0359    1.0910   -2.3989 H         1 <0>         0.1254
     53 H15        -0.0300   -1.1459   -6.0530 H         1 <0>         0.3879
     54 H16         0.5768   -3.7469   -7.2338 H         1 <0>         0.0859
     55 H17         0.4888   -2.4573   -9.3882 H         1 <0>         0.1040
     56 H18         0.0264   -1.0090   -8.4626 H         1 <0>         0.1081
     57 H19         1.9111    0.0110   -6.7688 H         1 <0>         0.2062
     58 H20         5.1719   -2.2063   -8.3516 H         1 <0>         0.2480
     59 H21         5.7417    0.0831   -7.1381 H         1 <0>         0.1131
     60 H22         4.3832    1.0185   -6.4691 H         1 <0>         0.1159
     61 H23         3.0140   -3.1262   -9.2088 H         1 <0>         0.4547
@<TRIPOS>BOND
     1    1    2 1
     2    1   39 1
     3    1   40 1
     4    1   41 1
     5    2    3 1
     6    2   16 1
     7    3    4 1
     8    3   42 1
     9    3   43 1
    10    4    9 ar
    11    4    5 ar
    12    5    6 ar
    13    5   44 1
    14    6    7 ar
    15    7   13 ar
    16    7    8 ar
    17    8    9 ar
    18    8   10 ar
    19   10   11 ar
    20   10   15 1
    21   11   12 ar
    22   12   13 ar
    23   12   14 1
    24   14   45 1
    25   14   46 1
    26   15   47 1
    27   15   48 1
    28   16   21 ar
    29   16   17 ar
    30   17   18 ar
    31   17   49 1
    32   18   19 ar
    33   18   50 1
    34   19   20 ar
    35   19   22 1
    36   20   21 ar
    37   20   51 1
    38   21   52 1
    39   22   23 2
    40   22   24 am
    41   24   25 1
    42   24   53 1
    43   25   26 1
    44   25   36 1
    45   25   54 1
    46   26   27 1
    47   26   55 1
    48   26   56 1
    49   27   31 1
    50   27   28 2
    51   28   29 1
    52   28   57 1
    53   29   30 1
    54   29   32 1
    55   30   31 2
    56   30   58 1
    57   31   61 1
    58   32   33 1
    59   32   59 1
    60   32   60 1
    61   33   34 2
    62   33   35 1
    63   36   37 2
    64   36   38 1
@<TRIPOS>MOLECULE
CHEMBL136133__1
   60    63     0     0     0
SMALL
USER_CHARGES

@<TRIPOS>ATOM
      1 C1         -0.0178    1.4608    0.0101 C.3       1 <0>         0.0945
      2 N1          0.0021   -0.0041    0.0020 N.pl3     1 <0>        -0.6229
      3 C2          0.0241   -0.7433    1.2666 C.3       1 <0>         0.1846
      4 C3         -1.3889   -1.0161    1.7137 C.ar      1 <0>         0.0306
      5 C4         -1.9892   -2.2351    1.3999 C.ar      1 <0>         0.1558
      6 N2         -3.2219   -2.4965    1.7797 N.ar      1 <0>        -0.4371
      7 C5         -3.9051   -1.5830    2.4739 C.ar      1 <0>         0.3715
      8 C6         -3.2902   -0.3458    2.7901 C.ar      1 <0>        -0.0917
      9 N3         -2.0425   -0.1038    2.4012 N.ar      1 <0>        -0.3730
     10 C7         -4.0706    0.6301    3.5527 C.ar      1 <0>         0.5430
     11 N4         -5.3055    0.2953    3.9004 N.ar      1 <0>        -0.6302
     12 C8         -5.8196   -0.8850    3.5693 C.ar      1 <0>         0.6358
     13 N5         -5.1609   -1.7987    2.8845 N.ar      1 <0>        -0.5988
     14 N6         -7.1130   -1.1692    3.9639 N.pl3     1 <0>        -0.8102
     15 N7         -3.5402    1.8539    3.8976 N.pl3     1 <0>        -0.7944
     16 C9          0.0000   -0.6928   -1.2059 C.ar      1 <0>         0.2182
     17 C10         0.0132   -2.0849   -1.2118 C.ar      1 <0>        -0.2129
     18 C11         0.0112   -2.7693   -2.4056 C.ar      1 <0>        -0.0178
     19 C12        -0.0041   -2.0653   -3.6133 C.ar      1 <0>        -0.1576
     20 C13        -0.0173   -0.6674   -3.6040 C.ar      1 <0>        -0.0285
     21 C14        -0.0210    0.0112   -2.4068 C.ar      1 <0>        -0.1994
     22 C15        -0.0058   -2.7960   -4.8948 C.2       1 <0>         0.5544
     23 O1          0.0061   -4.0119   -4.9015 O.2       1 <0>        -0.5664
     24 N8         -0.0205   -2.1158   -6.0583 N.am      1 <0>        -0.6633
     25 C16        -0.0222   -2.8414   -7.3310 C.3       1 <0>         0.0924
     26 C17         0.5711   -1.9524   -8.4257 C.3       1 <0>        -0.0226
     27 C18         2.0225   -1.6830   -8.1223 C.2       1 <0>        -0.0014
     28 C19         3.0602   -1.9171   -8.9480 C.2       1 <0>        -0.0464
     29 N9          4.1916   -1.5303   -8.2817 N.pl3     1 <0>        -0.4196
     30 C20         3.8056   -1.0729   -7.0711 C.2       1 <0>         0.1756
     31 N10         2.5065   -1.1626   -6.9848 N.2       1 <0>        -0.4887
     32 C21         5.5648   -1.5995   -8.7873 C.3       1 <0>         0.0318
     33 C22         5.9041   -0.3143   -9.4973 C.2       1 <0>         0.4836
     34 O2          5.0756    0.5770   -9.5738 O.co2     1 <0>        -0.6705
     35 O3          7.0071   -0.1656   -9.9951 O.co2     1 <0>        -0.6981
     36 C23        -1.4367   -3.2117   -7.6962 C.2       1 <0>         0.4945
     37 O4         -2.3634   -2.5041   -7.3399 O.co2     1 <0>        -0.6947
     38 O5         -1.6542   -4.2188   -8.3480 O.co2     1 <0>        -0.7008
     39 H1          1.0048    1.8381    0.0023 H         1 <0>         0.0505
     40 H2         -0.5450    1.8219   -0.8730 H         1 <0>         0.0688
     41 H3         -0.5280    1.8123    0.9069 H         1 <0>         0.0652
     42 H4          0.5496   -1.6879    1.1262 H         1 <0>         0.1012
     43 H5          0.5371   -0.1514    2.0246 H         1 <0>         0.0946
     44 H6         -1.4361   -2.9733    0.8382 H         1 <0>         0.1815
     45 H7         -7.6209   -0.5150    4.4689 H         1 <0>         0.4147
     46 H8         -7.5132   -2.0229    3.7358 H         1 <0>         0.4189
     47 H9         -2.6346    2.0814    3.6347 H         1 <0>         0.4251
     48 H10        -4.0722    2.4880    4.4032 H         1 <0>         0.4138
     49 H11         0.0253   -2.6282   -0.2785 H         1 <0>         0.1196
     50 H12         0.0217   -3.8493   -2.4096 H         1 <0>         0.1333
     51 H13        -0.0287   -0.1208   -4.5353 H         1 <0>         0.1298
     52 H14        -0.0359    1.0910   -2.3989 H         1 <0>         0.1234
     53 H15        -0.0300   -1.1459   -6.0530 H         1 <0>         0.3940
     54 H16         0.5768   -3.7469   -7.2338 H         1 <0>         0.0773
     55 H17         0.4888   -2.4573   -9.3882 H         1 <0>         0.0815
     56 H18         0.0264   -1.0090   -8.4626 H         1 <0>         0.0703
     57 H19         3.0096   -2.3310   -9.9443 H         1 <0>         0.1591
     58 H20         4.4626   -0.6921   -6.3033 H         1 <0>         0.1873
     59 H21         6.2519   -1.7466   -7.9540 H         1 <0>         0.0860
     60 H22         5.6541   -2.4336   -9.4834 H         1 <0>         0.0848
@<TRIPOS>BOND
     1    1    2 1
     2    1   39 1
     3    1   40 1
     4    1   41 1
     5    2    3 1
     6    2   16 1
     7    3    4 1
     8    3   42 1
     9    3   43 1
    10    4    9 ar
    11    4    5 ar
    12    5    6 ar
    13    5   44 1
    14    6    7 ar
    15    7   13 ar
    16    7    8 ar
    17    8    9 ar
    18    8   10 ar
    19   10   11 ar
    20   10   15 1
    21   11   12 ar
    22   12   13 ar
    23   12   14 1
    24   14   45 1
    25   14   46 1
    26   15   47 1
    27   15   48 1
    28   16   21 ar
    29   16   17 ar
    30   17   18 ar
    31   17   49 1
    32   18   19 ar
    33   18   50 1
    34   19   20 ar
    35   19   22 1
    36   20   21 ar
    37   20   51 1
    38   21   52 1
    39   22   23 2
    40   22   24 am
    41   24   25 1
    42   24   53 1
    43   25   26 1
    44   25   36 1
    45   25   54 1
    46   26   27 1
    47   26   55 1
    48   26   56 1
    49   27   31 1
    50   27   28 2
    51   28   29 1
    52   28   57 1
    53   29   30 1
    54   29   32 1
    55   30   31 2
    56   30   58 1
    57   32   33 1
    58   32   59 1
    59   32   60 1
    60   33   34 2
    61   33   35 1
    62   36   37 2
    63   36   38 1
@<TRIPOS>MOLECULE
CHEMBL136133__2
   61    64     0     0     0
SMALL
USER_CHARGES

@<TRIPOS>ATOM
      1 C1         -0.0178    1.4608    0.0101 C.3       1 <0>         0.0931
      2 N1          0.0021   -0.0041    0.0020 N.pl3     1 <0>        -0.6196
      3 C2          0.0241   -0.7433    1.2666 C.3       1 <0>         0.1828
      4 C3         -1.3889   -1.0161    1.7137 C.ar      1 <0>         0.0237
      5 C4         -1.9892   -2.2351    1.3999 C.ar      1 <0>         0.1545
      6 N2         -3.2219   -2.4965    1.7797 N.ar      1 <0>        -0.4352
      7 C5         -3.9051   -1.5830    2.4739 C.ar      1 <0>         0.3750
      8 C6         -3.2902   -0.3458    2.7901 C.ar      1 <0>        -0.0929
      9 N3         -2.0425   -0.1038    2.4012 N.ar      1 <0>        -0.3711
     10 C7         -4.0706    0.6301    3.5527 C.ar      1 <0>         0.5433
     11 N4         -5.3055    0.2953    3.9004 N.ar      1 <0>        -0.6284
     12 C8         -5.8196   -0.8850    3.5693 C.ar      1 <0>         0.6385
     13 N5         -5.1609   -1.7987    2.8845 N.ar      1 <0>        -0.5982
     14 N6         -7.1130   -1.1692    3.9639 N.pl3     1 <0>        -0.8075
     15 N7         -3.5402    1.8539    3.8976 N.pl3     1 <0>        -0.7942
     16 C9          0.0000   -0.6928   -1.2059 C.ar      1 <0>         0.2298
     17 C10         0.0132   -2.0849   -1.2118 C.ar      1 <0>        -0.2076
     18 C11         0.0112   -2.7693   -2.4056 C.ar      1 <0>        -0.0075
     19 C12        -0.0041   -2.0653   -3.6133 C.ar      1 <0>        -0.1717
     20 C13        -0.0173   -0.6674   -3.6040 C.ar      1 <0>        -0.0399
     21 C14        -0.0210    0.0112   -2.4068 C.ar      1 <0>        -0.2032
     22 C15        -0.0058   -2.7960   -4.8948 C.2       1 <0>         0.5667
     23 O1          0.0061   -4.0119   -4.9015 O.2       1 <0>        -0.5342
     24 N8         -0.0205   -2.1158   -6.0583 N.am      1 <0>        -0.7027
     25 C16        -0.0222   -2.8414   -7.3310 C.3       1 <0>         0.0772
     26 C17        -0.6480   -1.9644   -8.4172 C.3       1 <0>        -0.0463
     27 C18        -2.1001   -1.7234   -8.0938 C.2       1 <0>         0.0372
     28 C19        -3.1254   -2.5406   -8.4011 C.2       1 <0>         0.0328
     29 N9         -4.2626   -1.9450   -7.9259 N.pl3     1 <0>        -0.3566
     30 C20        -3.8923   -0.7838   -7.3444 C.cat     1 <0>         0.2674
     31 N10        -2.5970   -0.6604   -7.4442 N.pl3     1 <0>        -0.4817
     32 C21        -5.6267   -2.4693   -8.0290 C.3       1 <0>         0.0128
     33 C22        -5.9292   -3.3228   -6.8244 C.2       1 <0>         0.4828
     34 O2         -5.0837   -3.4786   -5.9599 O.co2     1 <0>        -0.6598
     35 O3         -7.0194   -3.8574   -6.7143 O.co2     1 <0>        -0.6620
     36 C23         1.3940   -3.1839   -7.7158 C.2       1 <0>         0.4922
     37 O4          2.3190   -2.8526   -6.9939 O.co2     1 <0>        -0.6737
     38 O5          1.6147   -3.7923   -8.7491 O.co2     1 <0>        -0.6919
     39 H1          1.0048    1.8381    0.0023 H         1 <0>         0.0525
     40 H2         -0.5450    1.8219   -0.8730 H         1 <0>         0.0669
     41 H3         -0.5280    1.8123    0.9069 H         1 <0>         0.0694
     42 H4          0.5496   -1.6879    1.1262 H         1 <0>         0.1024
     43 H5          0.5371   -0.1514    2.0246 H         1 <0>         0.0979
     44 H6         -1.4361   -2.9733    0.8382 H         1 <0>         0.1795
     45 H7         -7.6209   -0.5150    4.4689 H         1 <0>         0.4159
     46 H8         -7.5132   -2.0229    3.7358 H         1 <0>         0.4204
     47 H9         -2.6346    2.0814    3.6347 H         1 <0>         0.4245
     48 H10        -4.0722    2.4880    4.4032 H         1 <0>         0.4148
     49 H11         0.0253   -2.6282   -0.2785 H         1 <0>         0.1255
     50 H12         0.0217   -3.8493   -2.4096 H         1 <0>         0.1375
     51 H13        -0.0287   -0.1208   -4.5353 H         1 <0>         0.1177
     52 H14        -0.0359    1.0910   -2.3989 H         1 <0>         0.1248
     53 H15        -0.0300   -1.1459   -6.0530 H         1 <0>         0.3795
     54 H16        -0.6020   -3.7584   -7.2256 H         1 <0>         0.0949
     55 H17        -0.1225   -1.0104   -8.4615 H         1 <0>         0.0868
     56 H18        -0.5691   -2.4677   -9.3808 H         1 <0>         0.1258
     57 H19        -3.0626   -3.4843   -8.9225 H         1 <0>         0.2126
     58 H20        -4.5574   -0.0765   -6.8715 H         1 <0>         0.2462
     59 H21        -6.3324   -1.6398   -8.0731 H         1 <0>         0.1132
     60 H22        -5.7171   -3.0716   -8.9330 H         1 <0>         0.1177
     61 H23        -2.0760    0.0837   -7.1039 H         1 <0>         0.4494
@<TRIPOS>BOND
     1    1    2 1
     2    1   39 1
     3    1   40 1
     4    1   41 1
     5    2    3 1
     6    2   16 1
     7    3    4 1
     8    3   42 1
     9    3   43 1
    10    4    9 ar
    11    4    5 ar
    12    5    6 ar
    13    5   44 1
    14    6    7 ar
    15    7   13 ar
    16    7    8 ar
    17    8    9 ar
    18    8   10 ar
    19   10   11 ar
    20   10   15 1
    21   11   12 ar
    22   12   13 ar
    23   12   14 1
    24   14   45 1
    25   14   46 1
    26   15   47 1
    27   15   48 1
    28   16   21 ar
    29   16   17 ar
    30   17   18 ar
    31   17   49 1
    32   18   19 ar
    33   18   50 1
    34   19   20 ar
    35   19   22 1
    36   20   21 ar
    37   20   51 1
    38   21   52 1
    39   22   23 2
    40   22   24 am
    41   24   25 1
    42   24   53 1
    43   25   26 1
    44   25   36 1
    45   25   54 1
    46   26   27 1
    47   26   55 1
    48   26   56 1
    49   27   31 1
    50   27   28 2
    51   28   29 1
    52   28   57 1
    53   29   30 1
    54   29   32 1
    55   30   31 2
    56   30   58 1
    57   31   61 1
    58   32   33 1
    59   32   59 1
    60   32   60 1
    61   33   34 2
    62   33   35 1
    63   36   37 2
    64   36   38 1
@<TRIPOS>MOLECULE
CHEMBL136133__3
   60    63     0     0     0
SMALL
USER_CHARGES

@<TRIPOS>ATOM
      1 C1         -0.0178    1.4608    0.0101 C.3       1 <0>         0.0944
      2 N1          0.0021   -0.0041    0.0020 N.pl3     1 <0>        -0.6225
      3 C2          0.0241   -0.7433    1.2666 C.3       1 <0>         0.1846
      4 C3         -1.3889   -1.0161    1.7137 C.ar      1 <0>         0.0287
      5 C4         -1.9892   -2.2351    1.3999 C.ar      1 <0>         0.1553
      6 N2         -3.2219   -2.4965    1.7797 N.ar      1 <0>        -0.4371
      7 C5         -3.9051   -1.5830    2.4739 C.ar      1 <0>         0.3724
      8 C6         -3.2902   -0.3458    2.7901 C.ar      1 <0>        -0.0920
      9 N3         -2.0425   -0.1038    2.4012 N.ar      1 <0>        -0.3725
     10 C7         -4.0706    0.6301    3.5527 C.ar      1 <0>         0.5433
     11 N4         -5.3055    0.2953    3.9004 N.ar      1 <0>        -0.6296
     12 C8         -5.8196   -0.8850    3.5693 C.ar      1 <0>         0.6367
     13 N5         -5.1609   -1.7987    2.8845 N.ar      1 <0>        -0.5989
     14 N6         -7.1130   -1.1692    3.9639 N.pl3     1 <0>        -0.8094
     15 N7         -3.5402    1.8539    3.8976 N.pl3     1 <0>        -0.7943
     16 C9          0.0000   -0.6928   -1.2059 C.ar      1 <0>         0.2191
     17 C10         0.0132   -2.0849   -1.2118 C.ar      1 <0>        -0.2108
     18 C11         0.0112   -2.7693   -2.4056 C.ar      1 <0>        -0.0156
     19 C12        -0.0041   -2.0653   -3.6133 C.ar      1 <0>        -0.1594
     20 C13        -0.0173   -0.6674   -3.6040 C.ar      1 <0>        -0.0365
     21 C14        -0.0210    0.0112   -2.4068 C.ar      1 <0>        -0.1995
     22 C15        -0.0058   -2.7960   -4.8948 C.2       1 <0>         0.5596
     23 O1          0.0061   -4.0119   -4.9015 O.2       1 <0>        -0.5546
     24 N8         -0.0205   -2.1158   -6.0583 N.am      1 <0>        -0.6796
     25 C16        -0.0222   -2.8414   -7.3310 C.3       1 <0>         0.0895
     26 C17        -0.6480   -1.9644   -8.4172 C.3       1 <0>        -0.0207
     27 C18        -2.1001   -1.7234   -8.0938 C.2       1 <0>         0.0050
     28 C19        -2.6980   -0.5216   -7.9863 C.2       1 <0>        -0.0539
     29 N9         -4.0118   -0.7585   -7.6838 N.pl3     1 <0>        -0.4193
     30 C20        -4.1711   -2.0979   -7.6170 C.2       1 <0>         0.1773
     31 N10        -3.0246   -2.6686   -7.8682 N.2       1 <0>        -0.4903
     32 C21        -5.0511    0.2521   -7.4722 C.3       1 <0>         0.0324
     33 C22        -5.7206    0.5667   -8.7851 C.2       1 <0>         0.4832
     34 O2         -5.3629   -0.0006   -9.8032 O.co2     1 <0>        -0.6690
     35 O3         -6.6201    1.3886   -8.8291 O.co2     1 <0>        -0.6987
     36 C23         1.3940   -3.1839   -7.7158 C.2       1 <0>         0.4927
     37 O4          2.3190   -2.8526   -6.9939 O.co2     1 <0>        -0.6928
     38 O5          1.6147   -3.7923   -8.7491 O.co2     1 <0>        -0.7012
     39 H1          1.0048    1.8381    0.0023 H         1 <0>         0.0503
     40 H2         -0.5450    1.8219   -0.8730 H         1 <0>         0.0685
     41 H3         -0.5280    1.8123    0.9069 H         1 <0>         0.0661
     42 H4          0.5496   -1.6879    1.1262 H         1 <0>         0.1014
     43 H5          0.5371   -0.1514    2.0246 H         1 <0>         0.0950
     44 H6         -1.4361   -2.9733    0.8382 H         1 <0>         0.1810
     45 H7         -7.6209   -0.5150    4.4689 H         1 <0>         0.4150
     46 H8         -7.5132   -2.0229    3.7358 H         1 <0>         0.4192
     47 H9         -2.6346    2.0814    3.6347 H         1 <0>         0.4249
     48 H10        -4.0722    2.4880    4.4032 H         1 <0>         0.4141
     49 H11         0.0253   -2.6282   -0.2785 H         1 <0>         0.1210
     50 H12         0.0217   -3.8493   -2.4096 H         1 <0>         0.1351
     51 H13        -0.0287   -0.1208   -4.5353 H         1 <0>         0.1257
     52 H14        -0.0359    1.0910   -2.3989 H         1 <0>         0.1236
     53 H15        -0.0300   -1.1459   -6.0530 H         1 <0>         0.3845
     54 H16        -0.6020   -3.7584   -7.2256 H         1 <0>         0.0911
     55 H17        -0.1225   -1.0104   -8.4615 H         1 <0>         0.0639
     56 H18        -0.5691   -2.4677   -9.3808 H         1 <0>         0.0892
     57 H19        -2.2307    0.4437   -8.1138 H         1 <0>         0.1574
     58 H20        -5.0950   -2.6117   -7.3963 H         1 <0>         0.1881
     59 H21        -5.7913   -0.1297   -6.7691 H         1 <0>         0.0853
     60 H22        -4.5997    1.1583   -7.0681 H         1 <0>         0.0835
@<TRIPOS>BOND
     1    1    2 1
     2    1   39 1
     3    1   40 1
     4    1   41 1
     5    2    3 1
     6    2   16 1
     7    3    4 1
     8    3   42 1
     9    3   43 1
    10    4    9 ar
    11    4    5 ar
    12    5    6 ar
    13    5   44 1
    14    6    7 ar
    15    7   13 ar
    16    7    8 ar
    17    8    9 ar
    18    8   10 ar
    19   10   11 ar
    20   10   15 1
    21   11   12 ar
    22   12   13 ar
    23   12   14 1
    24   14   45 1
    25   14   46 1
    26   15   47 1
    27   15   48 1
    28   16   21 ar
    29   16   17 ar
    30   17   18 ar
    31   17   49 1
    32   18   19 ar
    33   18   50 1
    34   19   20 ar
    35   19   22 1
    36   20   21 ar
    37   20   51 1
    38   21   52 1
    39   22   23 2
    40   22   24 am
    41   24   25 1
    42   24   53 1
    43   25   26 1
    44   25   36 1
    45   25   54 1
    46   26   27 1
    47   26   55 1
    48   26   56 1
    49   27   31 1
    50   27   28 2
    51   28   29 1
    52   28   57 1
    53   29   30 1
    54   29   32 1
    55   30   31 2
    56   30   58 1
    57   32   33 1
    58   32   59 1
    59   32   60 1
    60   33   34 2
    61   33   35 1
    62   36   37 2
    63   36   38 1
@<TRIPOS>MOLECULE
CHEMBL23374
   45    48     0     0     0
SMALL
USER_CHARGES

@<TRIPOS>ATOM
      1 C1          0.6013    1.5059    0.0254 C.3       1 <0>        -0.1731
      2 C2          0.5964   -0.0011    0.0165 C.ar      1 <0>         0.0575
      3 C3          0.7691   -0.7002   -1.1495 C.ar      1 <0>        -0.1431
      4 C4          0.7611   -2.0894   -1.1311 C.ar      1 <0>         0.2251
      5 N1          0.5910   -2.7658   -0.0169 N.ar      1 <0>        -0.4964
      6 C5          0.4180   -2.1439    1.1495 C.ar      1 <0>         0.3952
      7 C6          0.4213   -0.7279    1.1995 C.ar      1 <0>        -0.2336
      8 C7          0.2403   -0.0941    2.4537 C.ar      1 <0>         0.5771
      9 N2          0.0807   -0.8575    3.5254 N.ar      1 <0>        -0.5789
     10 C8          0.0889   -2.1844    3.4358 C.ar      1 <0>         0.6979
     11 N3          0.2432   -2.8239    2.2917 N.ar      1 <0>        -0.5710
     12 N4         -0.0825   -2.9256    4.5893 N.pl3     1 <0>        -0.7790
     13 N5          0.2308    1.2796    2.5567 N.pl3     1 <0>        -0.8038
     14 C9          0.9668    0.0364   -2.4493 C.3       1 <0>        -0.0820
     15 C10         2.4460    0.3905   -2.6149 C.3       1 <0>        -0.0745
     16 C11         2.6437    1.1271   -3.9147 C.ar      1 <0>        -0.0855
     17 C12         3.0108    0.4490   -5.0365 C.ar      1 <0>        -0.1034
     18 C13         3.1983    1.1129   -6.2470 C.ar      1 <0>        -0.1162
     19 C14         3.0202    2.4590   -6.3430 C.ar      1 <0>        -0.0992
     20 C15         2.6412    3.1929   -5.2064 C.ar      1 <0>        -0.0522
     21 C16         2.4444    2.5166   -3.9763 C.ar      1 <0>        -0.0430
     22 C17         2.0596    3.2500   -2.8408 C.ar      1 <0>        -0.1238
     23 C18         1.8758    4.5948   -2.9383 C.ar      1 <0>        -0.1082
     24 C19         2.0629    5.2589   -4.1494 C.ar      1 <0>        -0.1190
     25 C20         2.4484    4.5838   -5.2665 C.ar      1 <0>        -0.0974
     26 H1          1.5930    1.8644    0.3009 H         1 <0>         0.1052
     27 H2          0.3439    1.8759   -0.9671 H         1 <0>         0.1069
     28 H3         -0.1297    1.8673    0.7487 H         1 <0>         0.1064
     29 H4          0.8979   -2.6280   -2.0571 H         1 <0>         0.1927
     30 H5         -0.2052   -2.4769    5.4405 H         1 <0>         0.4477
     31 H6         -0.0800   -3.8947    4.5479 H         1 <0>         0.4334
     32 H7         -0.4109    1.7180    3.1371 H         1 <0>         0.4303
     33 H8          0.8658    1.8084    2.0488 H         1 <0>         0.4356
     34 H9          0.6498   -0.5971   -3.2778 H         1 <0>         0.0947
     35 H10         0.3729    0.9504   -2.4429 H         1 <0>         0.0931
     36 H11         2.7629    1.0240   -1.7865 H         1 <0>         0.0762
     37 H12         3.0399   -0.5235   -2.6213 H         1 <0>         0.0808
     38 H13         3.1594   -0.6196   -4.9873 H         1 <0>         0.1241
     39 H14         3.4896    0.5511   -7.1222 H         1 <0>         0.1269
     40 H15         3.1697    2.9603   -7.2878 H         1 <0>         0.1299
     41 H16         1.9102    2.7488   -1.8959 H         1 <0>         0.1222
     42 H17         1.5801    5.1560   -2.0642 H         1 <0>         0.1232
     43 H18         1.9101    6.3268   -4.1996 H         1 <0>         0.1259
     44 H19         2.5904    5.1117   -6.1979 H         1 <0>         0.1301
     45 H20         0.2412   -3.7938    2.2786 H         1 <0>         0.4452
@<TRIPOS>BOND
     1    1    2 1
     2    1   26 1
     3    1   27 1
     4    1   28 1
     5    2    7 ar
     6    2    3 ar
     7    3    4 ar
     8    3   14 1
     9    4    5 ar
    10    4   29 1
    11    5    6 ar
    12    6   11 ar
    13    6    7 ar
    14    7    8 ar
    15    8    9 ar
    16    8   13 1
    17    9   10 ar
    18   10   11 ar
    19   10   12 1
    20   11   45 1
    21   12   30 1
    22   12   31 1
    23   13   32 1
    24   13   33 1
    25   14   15 1
    26   14   34 1
    27   14   35 1
    28   15   16 1
    29   15   36 1
    30   15   37 1
    31   16   21 ar
    32   16   17 ar
    33   17   18 ar
    34   17   38 1
    35   18   19 ar
    36   18   39 1
    37   19   20 ar
    38   19   40 1
    39   20   25 ar
    40   20   21 ar
    41   21   22 ar
    42   22   23 ar
    43   22   41 1
    44   23   24 ar
    45   23   42 1
    46   24   25 ar
    47   24   43 1
    48   25   44 1
@<TRIPOS>MOLECULE
CHEMBL23374__1
   44    47     0     0     0
SMALL
USER_CHARGES

@<TRIPOS>ATOM
      1 C1          0.6013    1.5059    0.0254 C.3       1 <0>        -0.1582
      2 C2          0.5964   -0.0011    0.0165 C.ar      1 <0>         0.0390
      3 C3          0.7691   -0.7002   -1.1495 C.ar      1 <0>        -0.1871
      4 C4          0.7611   -2.0894   -1.1311 C.ar      1 <0>         0.1973
      5 N1          0.5910   -2.7658   -0.0169 N.ar      1 <0>        -0.4881
      6 C5          0.4180   -2.1439    1.1495 C.ar      1 <0>         0.4073
      7 C6          0.4213   -0.7279    1.1995 C.ar      1 <0>        -0.2751
      8 C7          0.2403   -0.0941    2.4537 C.ar      1 <0>         0.5211
      9 N2          0.0807   -0.8575    3.5254 N.ar      1 <0>        -0.6168
     10 C8          0.0889   -2.1844    3.4358 C.ar      1 <0>         0.6213
     11 N3          0.2432   -2.8239    2.2917 N.ar      1 <0>        -0.5906
     12 N4         -0.0825   -2.9256    4.5893 N.pl3     1 <0>        -0.8124
     13 N5          0.2308    1.2796    2.5567 N.pl3     1 <0>        -0.8462
     14 C9          0.9668    0.0364   -2.4493 C.3       1 <0>        -0.0661
     15 C10         2.4460    0.3905   -2.6149 C.3       1 <0>        -0.0777
     16 C11         2.6437    1.1271   -3.9147 C.ar      1 <0>        -0.0708
     17 C12         3.0108    0.4490   -5.0365 C.ar      1 <0>        -0.1124
     18 C13         3.1983    1.1129   -6.2470 C.ar      1 <0>        -0.1122
     19 C14         3.0202    2.4590   -6.3430 C.ar      1 <0>        -0.1099
     20 C15         2.6412    3.1929   -5.2064 C.ar      1 <0>        -0.0510
     21 C16         2.4444    2.5166   -3.9763 C.ar      1 <0>        -0.0454
     22 C17         2.0596    3.2500   -2.8408 C.ar      1 <0>        -0.1135
     23 C18         1.8758    4.5948   -2.9383 C.ar      1 <0>        -0.1156
     24 C19         2.0629    5.2589   -4.1494 C.ar      1 <0>        -0.1177
     25 C20         2.4484    4.5838   -5.2665 C.ar      1 <0>        -0.1048
     26 H1          1.5930    1.8644    0.3009 H         1 <0>         0.0852
     27 H2          0.3439    1.8759   -0.9671 H         1 <0>         0.0863
     28 H3         -0.1297    1.8673    0.7487 H         1 <0>         0.0998
     29 H4          0.8979   -2.6280   -2.0571 H         1 <0>         0.1659
     30 H5         -0.2052   -2.4769    5.4405 H         1 <0>         0.4156
     31 H6         -0.0800   -3.8947    4.5479 H         1 <0>         0.4183
     32 H7         -0.4109    1.7180    3.1371 H         1 <0>         0.4100
     33 H8          0.8658    1.8084    2.0488 H         1 <0>         0.4178
     34 H9          0.6498   -0.5971   -3.2778 H         1 <0>         0.0803
     35 H10         0.3729    0.9504   -2.4429 H         1 <0>         0.0794
     36 H11         2.7629    1.0240   -1.7865 H         1 <0>         0.0745
     37 H12         3.0399   -0.5235   -2.6213 H         1 <0>         0.0788
     38 H13         3.1594   -0.6196   -4.9873 H         1 <0>         0.1243
     39 H14         3.4896    0.5511   -7.1222 H         1 <0>         0.1238
     40 H15         3.1697    2.9603   -7.2878 H         1 <0>         0.1262
     41 H16         1.9102    2.7488   -1.8959 H         1 <0>         0.1278
     42 H17         1.5801    5.1560   -2.0642 H         1 <0>         0.1224
     43 H18         1.9101    6.3268   -4.1996 H         1 <0>         0.1228
     44 H19         2.5904    5.1117   -6.1979 H         1 <0>         0.1266
@<TRIPOS>BOND
     1    1    2 1
     2    1   26 1
     3    1   27 1
     4    1   28 1
     5    2    7 ar
     6    2    3 ar
     7    3    4 ar
     8    3   14 1
     9    4    5 ar
    10    4   29 1
    11    5    6 ar
    12    6   11 ar
    13    6    7 ar
    14    7    8 ar
    15    8    9 ar
    16    8   13 1
    17    9   10 ar
    18   10   11 ar
    19   10   12 1
    20   12   30 1
    21   12   31 1
    22   13   32 1
    23   13   33 1
    24   14   15 1
    25   14   34 1
    26   14   35 1
    27   15   16 1
    28   15   36 1
    29   15   37 1
    30   16   21 ar
    31   16   17 ar
    32   17   18 ar
    33   17   38 1
    34   18   19 ar
    35   18   39 1
    36   19   20 ar
    37   19   40 1
    38   20   25 ar
    39   20   21 ar
    40   21   22 ar
    41   22   23 ar
    42   22   41 1
    43   23   24 ar
    44   23   42 1
    45   24   25 ar
    46   24   43 1
    47   25   44 1
@<TRIPOS>MOLECULE
CHEMBL9973
   62    64     0     0     0
SMALL
USER_CHARGES

@<TRIPOS>ATOM
      1 C1         -0.0187    1.5258    0.0104 C.3       1 <0>        -0.1558
      2 C2          0.0021   -0.0041    0.0020 C.3       1 <0>        -0.1171
      3 C3         -1.4333   -0.5336    0.0129 C.3       1 <0>        -0.0375
      4 C4         -1.4133   -2.0590    0.1302 C.3       1 <0>        -0.1258
      5 C5         -0.8241   -2.4586    1.4845 C.3       1 <0>         0.1324
      6 C6         -0.7157   -3.9878    1.5717 C.3       1 <0>         0.1091
      7 N1         -2.0712   -4.5535    1.5011 N.pl3     1 <0>        -0.7004
      8 C7         -3.0792   -3.9804    2.2678 C.ar      1 <0>         0.4195
      9 C8         -2.9056   -2.7048    2.8007 C.ar      1 <0>         0.0015
     10 C9         -3.9301   -2.1520    3.5629 C.ar      1 <0>         0.5066
     11 N2         -5.0399   -2.8652    3.7555 N.ar      1 <0>        -0.5667
     12 C10        -5.1692   -4.0753    3.2343 C.ar      1 <0>         0.6559
     13 N3         -4.2138   -4.6315    2.5031 N.ar      1 <0>        -0.5743
     14 N4         -6.3403   -4.7826    3.4602 N.pl3     1 <0>        -0.8026
     15 N5         -3.7990   -0.8825    4.1126 N.pl3     1 <0>        -0.7927
     16 N6         -1.7099   -1.9994    2.5666 N.pl3     1 <0>        -0.7246
     17 C11        -2.1247   -0.1373   -1.2662 C.ar      1 <0>        -0.0771
     18 C12        -1.6224   -0.5660   -2.4820 C.ar      1 <0>        -0.1268
     19 C13        -2.2505   -0.2067   -3.6566 C.ar      1 <0>        -0.0629
     20 C14        -3.3951    0.5911   -3.6165 C.ar      1 <0>        -0.1021
     21 C15        -3.8966    1.0202   -2.3866 C.ar      1 <0>        -0.0823
     22 C16        -3.2621    0.6491   -1.2191 C.ar      1 <0>        -0.1234
     23 C17        -4.0731    0.9804   -4.8713 C.2       1 <0>         0.5381
     24 O1         -3.6339    0.6055   -5.9410 O.2       1 <0>        -0.5496
     25 N7         -5.1781    1.7508   -4.8293 N.am      1 <0>        -0.6720
     26 C18        -5.8499    2.1365   -6.0727 C.3       1 <0>         0.0725
     27 C19        -6.6281    3.4350   -5.8503 C.3       1 <0>        -0.0829
     28 C20        -5.6487    4.5714   -5.5501 C.3       1 <0>        -0.1769
     29 C21        -6.4151    5.8504   -5.3311 C.2       1 <0>         0.4903
     30 O2         -7.6319    5.8527   -5.4080 O.co2     1 <0>        -0.6962
     31 O3         -5.8184    6.8828   -5.0770 O.co2     1 <0>        -0.7178
     32 C22        -6.8023    1.0451   -6.4886 C.2       1 <0>         0.4990
     33 O4         -7.3319    0.3436   -5.6437 O.co2     1 <0>        -0.7022
     34 O5         -7.0431    0.8637   -7.6699 O.co2     1 <0>        -0.6962
     35 H1          1.0039    1.9031    0.0027 H         1 <0>         0.0542
     36 H2         -0.5459    1.8868   -0.8726 H         1 <0>         0.0637
     37 H3         -0.5289    1.8773    0.9072 H         1 <0>         0.0509
     38 H4          0.5123   -0.3556   -0.8948 H         1 <0>         0.0683
     39 H5          0.5293   -0.3651    0.8851 H         1 <0>         0.0592
     40 H6         -1.9701   -0.1109    0.8621 H         1 <0>         0.0756
     41 H7         -2.4301   -2.4431    0.0488 H         1 <0>         0.0669
     42 H8         -0.8018   -2.4769   -0.6695 H         1 <0>         0.0830
     43 H9          0.1630   -2.0118    1.6025 H         1 <0>         0.1201
     44 H10        -0.1182   -4.3615    0.7401 H         1 <0>         0.1160
     45 H11        -0.2490   -4.2696    2.5155 H         1 <0>         0.0880
     46 H12        -2.2589   -5.3138    0.9287 H         1 <0>         0.4202
     47 H13        -7.0491   -4.3895    3.9931 H         1 <0>         0.4421
     48 H14        -6.4507   -5.6703    3.0853 H         1 <0>         0.4254
     49 H15        -2.9871   -0.3722    3.9666 H         1 <0>         0.4233
     50 H16        -4.5194   -0.5066    4.6424 H         1 <0>         0.4268
     51 H17        -1.4753   -1.2281    3.1060 H         1 <0>         0.4107
     52 H18        -0.7365   -1.1830   -2.5116 H         1 <0>         0.1203
     53 H19        -1.8573   -0.5417   -4.6050 H         1 <0>         0.1351
     54 H20        -4.7818    1.6377   -2.3488 H         1 <0>         0.1302
     55 H21        -3.6516    0.9768   -0.2666 H         1 <0>         0.1182
     56 H22        -5.5286    2.0499   -3.9757 H         1 <0>         0.3903
     57 H23        -5.1066    2.2879   -6.8554 H         1 <0>         0.0795
     58 H24        -7.1988    3.6747   -6.7475 H         1 <0>         0.0748
     59 H25        -7.3094    3.3107   -5.0087 H         1 <0>         0.0598
     60 H26        -5.0779    4.3317   -4.6529 H         1 <0>         0.0487
     61 H27        -4.9673    4.6958   -6.3917 H         1 <0>         0.0535
     62 H28        -4.3437   -5.5203    2.1368 H         1 <0>         0.4357
@<TRIPOS>BOND
     1    1    2 1
     2    1   35 1
     3    1   36 1
     4    1   37 1
     5    2    3 1
     6    2   38 1
     7    2   39 1
     8    3    4 1
     9    3   17 1
    10    3   40 1
    11    4    5 1
    12    4   41 1
    13    4   42 1
    14    5   16 1
    15    5    6 1
    16    5   43 1
    17    6    7 1
    18    6   44 1
    19    6   45 1
    20    7    8 1
    21    7   46 1
    22    8   13 ar
    23    8    9 ar
    24    9   10 ar
    25    9   16 1
    26   10   11 ar
    27   10   15 1
    28   11   12 ar
    29   12   13 ar
    30   12   14 1
    31   13   62 1
    32   14   47 1
    33   14   48 1
    34   15   49 1
    35   15   50 1
    36   16   51 1
    37   17   22 ar
    38   17   18 ar
    39   18   19 ar
    40   18   52 1
    41   19   20 ar
    42   19   53 1
    43   20   21 ar
    44   20   23 1
    45   21   22 ar
    46   21   54 1
    47   22   55 1
    48   23   24 2
    49   23   25 am
    50   25   26 1
    51   25   56 1
    52   26   27 1
    53   26   32 1
    54   26   57 1
    55   27   28 1
    56   27   58 1
    57   27   59 1
    58   28   29 1
    59   28   60 1
    60   28   61 1
    61   29   30 2
    62   29   31 1
    63   32   33 2
    64   32   34 1
@<TRIPOS>MOLECULE
CHEMBL9973__1
   62    64     0     0     0
SMALL
USER_CHARGES

@<TRIPOS>ATOM
      1 C1         -0.0187    1.5258    0.0104 C.3       1 <0>        -0.1559
      2 C2          0.0021   -0.0041    0.0020 C.3       1 <0>        -0.1171
      3 C3         -1.4333   -0.5336    0.0129 C.3       1 <0>        -0.0372
      4 C4         -1.4133   -2.0590    0.1302 C.3       1 <0>        -0.1255
      5 C5         -0.8241   -2.4586    1.4845 C.3       1 <0>         0.1324
      6 C6         -0.7157   -3.9878    1.5717 C.3       1 <0>         0.1092
      7 N1         -2.0712   -4.5535    1.5011 N.pl3     1 <0>        -0.7006
      8 C7         -3.0792   -3.9804    2.2678 C.ar      1 <0>         0.4194
      9 C8         -2.9056   -2.7048    2.8007 C.ar      1 <0>         0.0013
     10 C9         -3.9301   -2.1520    3.5629 C.ar      1 <0>         0.5069
     11 N2         -5.0399   -2.8652    3.7555 N.ar      1 <0>        -0.5665
     12 C10        -5.1692   -4.0753    3.2343 C.ar      1 <0>         0.6563
     13 N3         -4.2138   -4.6315    2.5031 N.ar      1 <0>        -0.5745
     14 N4         -6.3403   -4.7826    3.4602 N.pl3     1 <0>        -0.8021
     15 N5         -3.7990   -0.8825    4.1126 N.pl3     1 <0>        -0.7929
     16 N6         -1.7099   -1.9994    2.5666 N.pl3     1 <0>        -0.7247
     17 C11        -2.1247   -0.1373   -1.2662 C.ar      1 <0>        -0.0781
     18 C12        -1.6224   -0.5660   -2.4820 C.ar      1 <0>        -0.1267
     19 C13        -2.2505   -0.2067   -3.6566 C.ar      1 <0>        -0.0632
     20 C14        -3.3951    0.5911   -3.6165 C.ar      1 <0>        -0.0997
     21 C15        -3.8966    1.0202   -2.3866 C.ar      1 <0>        -0.0832
     22 C16        -3.2621    0.6491   -1.2191 C.ar      1 <0>        -0.1236
     23 C17        -4.0731    0.9804   -4.8713 C.2       1 <0>         0.5450
     24 O1         -3.6339    0.6055   -5.9410 O.2       1 <0>        -0.5510
     25 N7         -5.1781    1.7508   -4.8293 N.am      1 <0>        -0.6726
     26 C18        -5.8499    2.1365   -6.0727 C.3       1 <0>         0.0717
     27 C19        -7.3227    2.4351   -5.7852 C.3       1 <0>        -0.0815
     28 C20        -8.0229    1.1540   -5.3274 C.3       1 <0>        -0.1766
     29 C21        -9.4735    1.4481   -5.0443 C.2       1 <0>         0.4901
     30 O2         -9.9072    2.5776   -5.1947 O.co2     1 <0>        -0.6936
     31 O3        -10.2135    0.5565   -4.6648 O.co2     1 <0>        -0.7212
     32 C22        -5.1894    3.3666   -6.6398 C.2       1 <0>         0.4952
     33 O4         -4.2450    3.8741   -6.0592 O.co2     1 <0>        -0.6979
     34 O5         -5.5994    3.8544   -7.6793 O.co2     1 <0>        -0.6950
     35 H1          1.0039    1.9031    0.0027 H         1 <0>         0.0540
     36 H2         -0.5459    1.8868   -0.8726 H         1 <0>         0.0643
     37 H3         -0.5289    1.8773    0.9072 H         1 <0>         0.0504
     38 H4          0.5123   -0.3556   -0.8948 H         1 <0>         0.0684
     39 H5          0.5293   -0.3651    0.8851 H         1 <0>         0.0590
     40 H6         -1.9701   -0.1109    0.8621 H         1 <0>         0.0754
     41 H7         -2.4301   -2.4431    0.0488 H         1 <0>         0.0668
     42 H8         -0.8018   -2.4769   -0.6695 H         1 <0>         0.0829
     43 H9          0.1630   -2.0118    1.6025 H         1 <0>         0.1200
     44 H10        -0.1182   -4.3615    0.7401 H         1 <0>         0.1159
     45 H11        -0.2490   -4.2696    2.5155 H         1 <0>         0.0878
     46 H12        -2.2589   -5.3138    0.9287 H         1 <0>         0.4200
     47 H13        -7.0491   -4.3895    3.9931 H         1 <0>         0.4424
     48 H14        -6.4507   -5.6703    3.0853 H         1 <0>         0.4255
     49 H15        -2.9871   -0.3722    3.9666 H         1 <0>         0.4231
     50 H16        -4.5194   -0.5066    4.6424 H         1 <0>         0.4268
     51 H17        -1.4753   -1.2281    3.1060 H         1 <0>         0.4106
     52 H18        -0.7365   -1.1830   -2.5116 H         1 <0>         0.1199
     53 H19        -1.8573   -0.5417   -4.6050 H         1 <0>         0.1348
     54 H20        -4.7818    1.6377   -2.3488 H         1 <0>         0.1292
     55 H21        -3.6516    0.9768   -0.2666 H         1 <0>         0.1176
     56 H22        -5.5286    2.0499   -3.9757 H         1 <0>         0.3881
     57 H23        -5.7783    1.3211   -6.7924 H         1 <0>         0.0790
     58 H24        -7.3943    3.1885   -5.0007 H         1 <0>         0.0553
     59 H25        -7.8016    2.8071   -6.6910 H         1 <0>         0.0816
     60 H26        -7.9513    0.4007   -6.1119 H         1 <0>         0.0524
     61 H27        -7.5440    0.7821   -4.4216 H         1 <0>         0.0466
     62 H28        -4.3437   -5.5203    2.1368 H         1 <0>         0.4357
@<TRIPOS>BOND
     1    1    2 1
     2    1   35 1
     3    1   36 1
     4    1   37 1
     5    2    3 1
     6    2   38 1
     7    2   39 1
     8    3    4 1
     9    3   17 1
    10    3   40 1
    11    4    5 1
    12    4   41 1
    13    4   42 1
    14    5   16 1
    15    5    6 1
    16    5   43 1
    17    6    7 1
    18    6   44 1
    19    6   45 1
    20    7    8 1
    21    7   46 1
    22    8   13 ar
    23    8    9 ar
    24    9   10 ar
    25    9   16 1
    26   10   11 ar
    27   10   15 1
    28   11   12 ar
    29   12   13 ar
    30   12   14 1
    31   13   62 1
    32   14   47 1
    33   14   48 1
    34   15   49 1
    35   15   50 1
    36   16   51 1
    37   17   22 ar
    38   17   18 ar
    39   18   19 ar
    40   18   52 1
    41   19   20 ar
    42   19   53 1
    43   20   21 ar
    44   20   23 1
    45   21   22 ar
    46   21   54 1
    47   22   55 1
    48   23   24 2
    49   23   25 am
    50   25   26 1
    51   25   56 1
    52   26   27 1
    53   26   32 1
    54   26   57 1
    55   27   28 1
    56   27   58 1
    57   27   59 1
    58   28   29 1
    59   28   60 1
    60   28   61 1
    61   29   30 2
    62   29   31 1
    63   32   33 2
    64   32   34 1
@<TRIPOS>MOLECULE
CHEMBL9973__2
   62    64     0     0     0
SMALL
USER_CHARGES

@<TRIPOS>ATOM
      1 C1         -0.0393    1.5312    0.0152 C.3       1 <0>        -0.1548
      2 C2         -0.0062    0.0016    0.0038 C.3       1 <0>        -0.1126
      3 C3         -1.4325   -0.5385   -0.1179 C.3       1 <0>        -0.0387
      4 C4         -1.4126   -2.0635    0.0045 C.3       1 <0>        -0.1207
      5 C5         -2.8479   -2.5931    0.0153 C.3       1 <0>         0.1319
      6 C6         -2.8338   -4.1283    0.0399 C.3       1 <0>         0.1065
      7 N1         -2.1973   -4.5661    1.2911 N.pl3     1 <0>        -0.6985
      8 C7         -2.5651   -3.9520    2.4827 C.ar      1 <0>         0.4124
      9 C8         -3.2348   -2.7304    2.4560 C.ar      1 <0>         0.0080
     10 C9         -3.5903   -2.1347    3.6622 C.ar      1 <0>         0.5020
     11 N2         -3.2770   -2.7566    4.7991 N.ar      1 <0>        -0.5673
     12 C10        -2.6408   -3.9175    4.7859 C.ar      1 <0>         0.6502
     13 N3         -2.2871   -4.5124    3.6554 N.ar      1 <0>        -0.5733
     14 N4         -2.3348   -4.5297    5.9918 N.pl3     1 <0>        -0.8069
     15 N5         -4.2586   -0.9165    3.6814 N.pl3     1 <0>        -0.7916
     16 N6         -3.5423   -2.1216    1.2244 N.pl3     1 <0>        -0.7204
     17 C11        -2.0045   -0.1494   -1.4567 C.ar      1 <0>        -0.0796
     18 C12        -1.3880   -0.5765   -2.6194 C.ar      1 <0>        -0.1272
     19 C13        -1.9065   -0.2238   -3.8482 C.ar      1 <0>        -0.0608
     20 C14        -3.0555    0.5656   -3.9169 C.ar      1 <0>        -0.1008
     21 C15        -3.6725    0.9931   -2.7401 C.ar      1 <0>        -0.0808
     22 C16        -3.1470    0.6287   -1.5177 C.ar      1 <0>        -0.1263
     23 C17        -3.6164    0.9478   -5.2304 C.2       1 <0>         0.5373
     24 O1         -3.0768    0.5744   -6.2535 O.2       1 <0>        -0.5491
     25 N7         -4.7260    1.7102   -5.2932 N.am      1 <0>        -0.6716
     26 C18        -5.2818    2.0889   -6.5948 C.3       1 <0>         0.0725
     27 C19        -6.0865    3.3819   -6.4490 C.3       1 <0>        -0.0831
     28 C20        -5.1475    4.5261   -6.0615 C.3       1 <0>        -0.1767
     29 C21        -5.9402    5.7997   -5.9179 C.2       1 <0>         0.4900
     30 O2         -7.1445    5.7929   -6.1079 O.co2     1 <0>        -0.6960
     31 O3         -5.3771    6.8369   -5.6117 O.co2     1 <0>        -0.7180
     32 C22        -6.1834    0.9898   -7.0950 C.2       1 <0>         0.4990
     33 O4         -6.7844    0.2858   -6.3015 O.co2     1 <0>        -0.7016
     34 O5         -6.3118    0.8045   -8.2932 O.co2     1 <0>        -0.6962
     35 H1          0.9769    1.9160    0.1019 H         1 <0>         0.0533
     36 H2         -0.4866    1.8918   -0.9110 H         1 <0>         0.0645
     37 H3         -0.6317    1.8755    0.8629 H         1 <0>         0.0505
     38 H4          0.5862   -0.3427   -0.8439 H         1 <0>         0.0667
     39 H5          0.4411   -0.3591    0.9301 H         1 <0>         0.0554
     40 H6         -2.0491   -0.1183    0.6767 H         1 <0>         0.0759
     41 H7         -0.8747   -2.4889   -0.8428 H         1 <0>         0.0836
     42 H8         -0.9136   -2.3472    0.9311 H         1 <0>         0.0618
     43 H9         -3.3757   -2.2435   -0.8720 H         1 <0>         0.1261
     44 H10        -3.8555   -4.5056   -0.0039 H         1 <0>         0.0919
     45 H11        -2.2664   -4.5039   -0.8116 H         1 <0>         0.1184
     46 H12        -1.5321   -5.2721    1.2851 H         1 <0>         0.4180
     47 H13        -2.5865   -4.1072    6.8279 H         1 <0>         0.4407
     48 H14        -1.8689   -5.3805    5.9992 H         1 <0>         0.4239
     49 H15        -4.4820   -0.4727    2.8483 H         1 <0>         0.4260
     50 H16        -4.5017   -0.5100    4.5279 H         1 <0>         0.4260
     51 H17        -4.1967   -1.4073    1.1739 H         1 <0>         0.4135
     52 H18        -0.4988   -1.1870   -2.5649 H         1 <0>         0.1205
     53 H19        -1.4242   -0.5575   -4.7551 H         1 <0>         0.1353
     54 H20        -4.5618    1.6042   -2.7864 H         1 <0>         0.1309
     55 H21        -3.6259    0.9551   -0.6064 H         1 <0>         0.1191
     56 H22        -5.1567    2.0082   -4.4767 H         1 <0>         0.3904
     57 H23        -4.4699    2.2443   -7.3052 H         1 <0>         0.0793
     58 H24        -6.5729    3.6159   -7.3960 H         1 <0>         0.0747
     59 H25        -6.8425    3.2540   -5.6742 H         1 <0>         0.0601
     60 H26        -4.6612    4.2920   -5.1144 H         1 <0>         0.0487
     61 H27        -4.3916    4.6540   -6.8362 H         1 <0>         0.0533
     62 H28        -1.8221   -5.3632    3.6842 H         1 <0>         0.4342
@<TRIPOS>BOND
     1    1    2 1
     2    1   35 1
     3    1   36 1
     4    1   37 1
     5    2    3 1
     6    2   38 1
     7    2   39 1
     8    3    4 1
     9    3   17 1
    10    3   40 1
    11    4    5 1
    12    4   41 1
    13    4   42 1
    14    5   16 1
    15    5    6 1
    16    5   43 1
    17    6    7 1
    18    6   44 1
    19    6   45 1
    20    7    8 1
    21    7   46 1
    22    8   13 ar
    23    8    9 ar
    24    9   10 ar
    25    9   16 1
    26   10   11 ar
    27   10   15 1
    28   11   12 ar
    29   12   13 ar
    30   12   14 1
    31   13   62 1
    32   14   47 1
    33   14   48 1
    34   15   49 1
    35   15   50 1
    36   16   51 1
    37   17   22 ar
    38   17   18 ar
    39   18   19 ar
    40   18   52 1
    41   19   20 ar
    42   19   53 1
    43   20   21 ar
    44   20   23 1
    45   21   22 ar
    46   21   54 1
    47   22   55 1
    48   23   24 2
    49   23   25 am
    50   25   26 1
    51   25   56 1
    52   26   27 1
    53   26   32 1
    54   26   57 1
    55   27   28 1
    56   27   58 1
    57   27   59 1
    58   28   29 1
    59   28   60 1
    60   28   61 1
    61   29   30 2
    62   29   31 1
    63   32   33 2
    64   32   34 1
@<TRIPOS>MOLECULE
CHEMBL9973__3
   62    64     0     0     0
SMALL
USER_CHARGES

@<TRIPOS>ATOM
      1 C1         -0.0393    1.5312    0.0152 C.3       1 <0>        -0.1550
      2 C2         -0.0062    0.0016    0.0038 C.3       1 <0>        -0.1126
      3 C3         -1.4325   -0.5385   -0.1179 C.3       1 <0>        -0.0384
      4 C4         -1.4126   -2.0635    0.0045 C.3       1 <0>        -0.1207
      5 C5         -2.8479   -2.5931    0.0153 C.3       1 <0>         0.1322
      6 C6         -2.8338   -4.1283    0.0399 C.3       1 <0>         0.1065
      7 N1         -2.1973   -4.5661    1.2911 N.pl3     1 <0>        -0.6986
      8 C7         -2.5651   -3.9520    2.4827 C.ar      1 <0>         0.4123
      9 C8         -3.2348   -2.7304    2.4560 C.ar      1 <0>         0.0082
     10 C9         -3.5903   -2.1347    3.6622 C.ar      1 <0>         0.5022
     11 N2         -3.2770   -2.7566    4.7991 N.ar      1 <0>        -0.5673
     12 C10        -2.6408   -3.9175    4.7859 C.ar      1 <0>         0.6502
     13 N3         -2.2871   -4.5124    3.6554 N.ar      1 <0>        -0.5732
     14 N4         -2.3348   -4.5297    5.9918 N.pl3     1 <0>        -0.8069
     15 N5         -4.2586   -0.9165    3.6814 N.pl3     1 <0>        -0.7915
     16 N6         -3.5423   -2.1216    1.2244 N.pl3     1 <0>        -0.7204
     17 C11        -2.0045   -0.1494   -1.4567 C.ar      1 <0>        -0.0806
     18 C12        -1.3880   -0.5765   -2.6194 C.ar      1 <0>        -0.1270
     19 C13        -1.9065   -0.2238   -3.8482 C.ar      1 <0>        -0.0611
     20 C14        -3.0555    0.5656   -3.9169 C.ar      1 <0>        -0.0984
     21 C15        -3.6725    0.9931   -2.7401 C.ar      1 <0>        -0.0817
     22 C16        -3.1470    0.6287   -1.5177 C.ar      1 <0>        -0.1265
     23 C17        -3.6164    0.9478   -5.2304 C.2       1 <0>         0.5441
     24 O1         -3.0768    0.5744   -6.2535 O.2       1 <0>        -0.5505
     25 N7         -4.7260    1.7102   -5.2932 N.am      1 <0>        -0.6722
     26 C18        -5.2818    2.0889   -6.5948 C.3       1 <0>         0.0718
     27 C19        -6.7771    2.3771   -6.4465 C.3       1 <0>        -0.0816
     28 C20        -7.5076    1.0917   -6.0529 C.3       1 <0>        -0.1762
     29 C21        -8.9804    1.3756   -5.9068 C.2       1 <0>         0.4897
     30 O2         -9.4063    2.5016   -6.0996 O.co2     1 <0>        -0.6940
     31 O3         -9.7462    0.4792   -5.5958 O.co2     1 <0>        -0.7207
     32 C22        -4.5801    3.3228   -7.1008 C.2       1 <0>         0.4951
     33 O4         -3.6976    3.8382   -6.4359 O.co2     1 <0>        -0.6983
     34 O5         -4.8950    3.8058   -8.1751 O.co2     1 <0>        -0.6950
     35 H1          0.9769    1.9160    0.1019 H         1 <0>         0.0532
     36 H2         -0.4866    1.8918   -0.9110 H         1 <0>         0.0651
     37 H3         -0.6317    1.8755    0.8629 H         1 <0>         0.0500
     38 H4          0.5862   -0.3427   -0.8439 H         1 <0>         0.0668
     39 H5          0.4411   -0.3591    0.9301 H         1 <0>         0.0551
     40 H6         -2.0491   -0.1183    0.6767 H         1 <0>         0.0756
     41 H7         -0.8747   -2.4889   -0.8428 H         1 <0>         0.0835
     42 H8         -0.9136   -2.3472    0.9311 H         1 <0>         0.0617
     43 H9         -3.3757   -2.2435   -0.8720 H         1 <0>         0.1258
     44 H10        -3.8555   -4.5056   -0.0039 H         1 <0>         0.0919
     45 H11        -2.2664   -4.5039   -0.8116 H         1 <0>         0.1182
     46 H12        -1.5321   -5.2721    1.2851 H         1 <0>         0.4180
     47 H13        -2.5865   -4.1072    6.8279 H         1 <0>         0.4406
     48 H14        -1.8689   -5.3805    5.9992 H         1 <0>         0.4238
     49 H15        -4.4820   -0.4727    2.8483 H         1 <0>         0.4261
     50 H16        -4.5017   -0.5100    4.5279 H         1 <0>         0.4260
     51 H17        -4.1967   -1.4073    1.1739 H         1 <0>         0.4137
     52 H18        -0.4988   -1.1870   -2.5649 H         1 <0>         0.1201
     53 H19        -1.4242   -0.5575   -4.7551 H         1 <0>         0.1350
     54 H20        -4.5618    1.6042   -2.7864 H         1 <0>         0.1299
     55 H21        -3.6259    0.9551   -0.6064 H         1 <0>         0.1185
     56 H22        -5.1567    2.0082   -4.4767 H         1 <0>         0.3881
     57 H23        -5.1376    1.2727   -7.3028 H         1 <0>         0.0792
     58 H24        -6.9268    3.1312   -5.6739 H         1 <0>         0.0552
     59 H25        -7.1721    2.7440   -7.3938 H         1 <0>         0.0813
     60 H26        -7.3579    0.3375   -6.8255 H         1 <0>         0.0525
     61 H27        -7.1126    0.7248   -5.1055 H         1 <0>         0.0470
     62 H28        -1.8221   -5.3632    3.6842 H         1 <0>         0.4342
@<TRIPOS>BOND
     1    1    2 1
     2    1   35 1
     3    1   36 1
     4    1   37 1
     5    2    3 1
     6    2   38 1
     7    2   39 1
     8    3    4 1
     9    3   17 1
    10    3   40 1
    11    4    5 1
    12    4   41 1
    13    4   42 1
    14    5   16 1
    15    5    6 1
    16    5   43 1
    17    6    7 1
    18    6   44 1
    19    6   45 1
    20    7    8 1
    21    7   46 1
    22    8   13 ar
    23    8    9 ar
    24    9   10 ar
    25    9   16 1
    26   10   11 ar
    27   10   15 1
    28   11   12 ar
    29   12   13 ar
    30   12   14 1
    31   13   62 1
    32   14   47 1
    33   14   48 1
    34   15   49 1
    35   15   50 1
    36   16   51 1
    37   17   22 ar
    38   17   18 ar
    39   18   19 ar
    40   18   52 1
    41   19   20 ar
    42   19   53 1
    43   20   21 ar
    44   20   23 1
    45   21   22 ar
    46   21   54 1
    47   22   55 1
    48   23   24 2
    49   23   25 am
    50   25   26 1
    51   25   56 1
    52   26   27 1
    53   26   32 1
    54   26   57 1
    55   27   28 1
    56   27   58 1
    57   27   59 1
    58   28   29 1
    59   28   60 1
    60   28   61 1
    61   29   30 2
    62   29   31 1
    63   32   33 2
    64   32   34 1
@<TRIPOS>MOLECULE
CHEMBL9973__4
   62    64     0     0     0
SMALL
USER_CHARGES

@<TRIPOS>ATOM
      1 C1          0.1345    1.2758   -0.0945 C.3       1 <0>        -0.1473
      2 C2          0.0421   -0.2513   -0.0777 C.3       1 <0>        -0.1200
      3 C3         -1.4195   -0.6720    0.0885 C.3       1 <0>        -0.0360
      4 C4         -2.2153   -0.2508   -1.1486 C.3       1 <0>        -0.1228
      5 C5         -3.6998   -0.5461   -0.9251 C.3       1 <0>         0.1318
      6 C6         -4.4905   -0.2219   -2.2007 C.3       1 <0>         0.1065
      7 N1         -4.3674    1.2186   -2.4690 N.pl3     1 <0>        -0.6985
      8 C7         -4.5326    2.1142   -1.4188 C.ar      1 <0>         0.4125
      9 C8         -4.4562    1.6624   -0.1029 C.ar      1 <0>         0.0088
     10 C9         -4.6228    2.5787    0.9309 C.ar      1 <0>         0.5016
     11 N2         -4.8504    3.8556    0.6227 N.ar      1 <0>        -0.5667
     12 C10        -4.9176    4.2487   -0.6396 C.ar      1 <0>         0.6497
     13 N3         -4.7632    3.4028   -1.6484 N.ar      1 <0>        -0.5731
     14 N4         -5.1570    5.5865   -0.9150 N.pl3     1 <0>        -0.8070
     15 N5         -4.5537    2.1710    2.2575 N.pl3     1 <0>        -0.7923
     16 N6         -4.2165    0.3006    0.1623 N.pl3     1 <0>        -0.7201
     17 C11        -1.4963   -2.1684    0.2496 C.ar      1 <0>        -0.0847
     18 C12        -1.0156   -2.9945   -0.7508 C.ar      1 <0>        -0.1260
     19 C13        -1.0829   -4.3652   -0.6095 C.ar      1 <0>        -0.0614
     20 C14        -1.6375   -4.9181    0.5458 C.ar      1 <0>        -0.1001
     21 C15        -2.1206   -4.0792    1.5512 C.ar      1 <0>        -0.0812
     22 C16        -2.0421   -2.7101    1.3999 C.ar      1 <0>        -0.1256
     23 C17        -1.7132   -6.3862    0.7037 C.2       1 <0>         0.5371
     24 O1         -1.2920   -7.1144   -0.1737 O.2       1 <0>        -0.5489
     25 N7         -2.2493   -6.9170    1.8206 N.am      1 <0>        -0.6715
     26 C18        -2.3244   -8.3717    1.9770 C.3       1 <0>         0.0728
     27 C19        -3.4619   -8.7232    2.9380 C.3       1 <0>        -0.0836
     28 C20        -4.7989   -8.3134    2.3173 C.3       1 <0>        -0.1756
     29 C21        -5.9193   -8.6596    3.2638 C.2       1 <0>         0.4900
     30 O2         -5.6714   -9.1855    4.3355 O.co2     1 <0>        -0.6945
     31 O3         -7.0737   -8.4139    2.9578 O.co2     1 <0>        -0.7199
     32 C22        -1.0209   -8.8852    2.5324 C.2       1 <0>         0.4976
     33 O4         -0.3488   -8.1776    3.2633 O.co2     1 <0>        -0.6994
     34 O5         -0.6385  -10.0081    2.2508 O.co2     1 <0>        -0.6965
     35 H1          1.1821    1.5762   -0.1123 H         1 <0>         0.0556
     36 H2         -0.3690    1.6605   -0.9814 H         1 <0>         0.0462
     37 H3         -0.3439    1.6786    0.7983 H         1 <0>         0.0494
     38 H4          0.4303   -0.6492   -1.0153 H         1 <0>         0.0673
     39 H5          0.6293   -0.6417    0.7535 H         1 <0>         0.0708
     40 H6         -1.8384   -0.1895    0.9715 H         1 <0>         0.0758
     41 H7         -2.0792    0.8166   -1.3220 H         1 <0>         0.0660
     42 H8         -1.8606   -0.8079   -2.0158 H         1 <0>         0.0828
     43 H9         -3.8310   -1.5970   -0.6671 H         1 <0>         0.1254
     44 H10        -4.0834   -0.7876   -3.0388 H         1 <0>         0.1180
     45 H11        -5.5398   -0.4804   -2.0579 H         1 <0>         0.0919
     46 H12        -4.1739    1.5386   -3.3640 H         1 <0>         0.4180
     47 H13        -5.2723    6.2182   -0.1881 H         1 <0>         0.4406
     48 H14        -5.2091    5.8905   -1.8347 H         1 <0>         0.4238
     49 H15        -4.3135    1.2560    2.4718 H         1 <0>         0.4261
     50 H16        -4.7456    2.8015    2.9693 H         1 <0>         0.4259
     51 H17        -4.3876   -0.0710    1.0418 H         1 <0>         0.4138
     52 H18        -0.5870   -2.5653   -1.6444 H         1 <0>         0.1207
     53 H19        -0.7076   -5.0089   -1.3913 H         1 <0>         0.1355
     54 H20        -2.5509   -4.5008    2.4476 H         1 <0>         0.1313
     55 H21        -2.4116   -2.0598    2.1789 H         1 <0>         0.1196
     56 H22        -2.5854   -6.3359    2.5207 H         1 <0>         0.3904
     57 H23        -2.5127   -8.8322    1.0072 H         1 <0>         0.0792
     58 H24        -3.4617   -9.7973    3.1238 H         1 <0>         0.0749
     59 H25        -3.3200   -8.1916    3.8789 H         1 <0>         0.0605
     60 H26        -4.7992   -7.2393    2.1314 H         1 <0>         0.0480
     61 H27        -4.9408   -8.8450    1.3763 H         1 <0>         0.0530
     62 H28        -4.8186    3.7268   -2.5611 H         1 <0>         0.4341
@<TRIPOS>BOND
     1    1    2 1
     2    1   35 1
     3    1   36 1
     4    1   37 1
     5    2    3 1
     6    2   38 1
     7    2   39 1
     8    3    4 1
     9    3   17 1
    10    3   40 1
    11    4    5 1
    12    4   41 1
    13    4   42 1
    14    5   16 1
    15    5    6 1
    16    5   43 1
    17    6    7 1
    18    6   44 1
    19    6   45 1
    20    7    8 1
    21    7   46 1
    22    8   13 ar
    23    8    9 ar
    24    9   10 ar
    25    9   16 1
    26   10   11 ar
    27   10   15 1
    28   11   12 ar
    29   12   13 ar
    30   12   14 1
    31   13   62 1
    32   14   47 1
    33   14   48 1
    34   15   49 1
    35   15   50 1
    36   16   51 1
    37   17   22 ar
    38   17   18 ar
    39   18   19 ar
    40   18   52 1
    41   19   20 ar
    42   19   53 1
    43   20   21 ar
    44   20   23 1
    45   21   22 ar
    46   21   54 1
    47   22   55 1
    48   23   24 2
    49   23   25 am
    50   25   26 1
    51   25   56 1
    52   26   27 1
    53   26   32 1
    54   26   57 1
    55   27   28 1
    56   27   58 1
    57   27   59 1
    58   28   29 1
    59   28   60 1
    60   28   61 1
    61   29   30 2
    62   29   31 1
    63   32   33 2
    64   32   34 1
@<TRIPOS>MOLECULE
CHEMBL9973__5
   62    64     0     0     0
SMALL
USER_CHARGES

@<TRIPOS>ATOM
      1 C1          0.1345    1.2758   -0.0945 C.3       1 <0>        -0.1474
      2 C2          0.0421   -0.2513   -0.0777 C.3       1 <0>        -0.1198
      3 C3         -1.4195   -0.6720    0.0885 C.3       1 <0>        -0.0358
      4 C4         -2.2153   -0.2508   -1.1486 C.3       1 <0>        -0.1227
      5 C5         -3.6998   -0.5461   -0.9251 C.3       1 <0>         0.1315
      6 C6         -4.4905   -0.2219   -2.2007 C.3       1 <0>         0.1064
      7 N1         -4.3674    1.2186   -2.4690 N.pl3     1 <0>        -0.6982
      8 C7         -4.5326    2.1142   -1.4188 C.ar      1 <0>         0.4126
      9 C8         -4.4562    1.6624   -0.1029 C.ar      1 <0>         0.0087
     10 C9         -4.6228    2.5787    0.9309 C.ar      1 <0>         0.5013
     11 N2         -4.8504    3.8556    0.6227 N.ar      1 <0>        -0.5667
     12 C10        -4.9176    4.2487   -0.6396 C.ar      1 <0>         0.6495
     13 N3         -4.7632    3.4028   -1.6484 N.ar      1 <0>        -0.5731
     14 N4         -5.1570    5.5865   -0.9150 N.pl3     1 <0>        -0.8070
     15 N5         -4.5537    2.1710    2.2575 N.pl3     1 <0>        -0.7925
     16 N6         -4.2165    0.3006    0.1623 N.pl3     1 <0>        -0.7200
     17 C11        -1.4963   -2.1684    0.2496 C.ar      1 <0>        -0.0858
     18 C12        -1.0156   -2.9945   -0.7508 C.ar      1 <0>        -0.1258
     19 C13        -1.0829   -4.3652   -0.6095 C.ar      1 <0>        -0.0616
     20 C14        -1.6375   -4.9181    0.5458 C.ar      1 <0>        -0.0976
     21 C15        -2.1206   -4.0792    1.5512 C.ar      1 <0>        -0.0821
     22 C16        -2.0421   -2.7101    1.3999 C.ar      1 <0>        -0.1258
     23 C17        -1.7132   -6.3862    0.7037 C.2       1 <0>         0.5442
     24 O1         -1.2920   -7.1144   -0.1737 O.2       1 <0>        -0.5505
     25 N7         -2.2493   -6.9170    1.8206 N.am      1 <0>        -0.6720
     26 C18        -2.3244   -8.3717    1.9770 C.3       1 <0>         0.0715
     27 C19        -2.3628   -8.7232    3.4656 C.3       1 <0>        -0.0811
     28 C20        -1.0422   -8.3133    4.1206 C.3       1 <0>        -0.1774
     29 C21        -1.0800   -8.6595    5.5868 C.2       1 <0>         0.4898
     30 O2         -2.0712   -9.1854    6.0637 O.co2     1 <0>        -0.6956
     31 O3         -0.1193   -8.4138    6.2962 O.co2     1 <0>        -0.7187
     32 C22        -3.5730   -8.8852    1.3073 C.2       1 <0>         0.4966
     33 O4         -4.3299   -8.1081    0.7509 O.co2     1 <0>        -0.7007
     34 O5         -3.8261  -10.0778    1.3219 O.co2     1 <0>        -0.6945
     35 H1          1.1821    1.5762   -0.1123 H         1 <0>         0.0555
     36 H2         -0.3690    1.6605   -0.9814 H         1 <0>         0.0461
     37 H3         -0.3439    1.6786    0.7983 H         1 <0>         0.0494
     38 H4          0.4303   -0.6492   -1.0153 H         1 <0>         0.0672
     39 H5          0.6293   -0.6417    0.7535 H         1 <0>         0.0707
     40 H6         -1.8384   -0.1895    0.9715 H         1 <0>         0.0755
     41 H7         -2.0792    0.8166   -1.3220 H         1 <0>         0.0657
     42 H8         -1.8606   -0.8079   -2.0158 H         1 <0>         0.0829
     43 H9         -3.8310   -1.5970   -0.6671 H         1 <0>         0.1260
     44 H10        -4.0834   -0.7876   -3.0388 H         1 <0>         0.1185
     45 H11        -5.5398   -0.4804   -2.0579 H         1 <0>         0.0918
     46 H12        -4.1739    1.5386   -3.3640 H         1 <0>         0.4180
     47 H13        -5.2723    6.2182   -0.1881 H         1 <0>         0.4406
     48 H14        -5.2091    5.8905   -1.8347 H         1 <0>         0.4238
     49 H15        -4.3135    1.2560    2.4718 H         1 <0>         0.4260
     50 H16        -4.7456    2.8015    2.9693 H         1 <0>         0.4259
     51 H17        -4.3876   -0.0710    1.0418 H         1 <0>         0.4136
     52 H18        -0.5870   -2.5653   -1.6444 H         1 <0>         0.1203
     53 H19        -0.7076   -5.0089   -1.3913 H         1 <0>         0.1353
     54 H20        -2.5509   -4.5008    2.4476 H         1 <0>         0.1303
     55 H21        -2.4116   -2.0598    2.1789 H         1 <0>         0.1190
     56 H22        -2.5854   -6.3359    2.5207 H         1 <0>         0.3882
     57 H23        -1.4499   -8.8322    1.5174 H         1 <0>         0.0794
     58 H24        -3.1857   -8.1916    3.9434 H         1 <0>         0.0549
     59 H25        -2.5079   -9.7973    3.5817 H         1 <0>         0.0812
     60 H26        -0.2193   -8.8449    3.6428 H         1 <0>         0.0529
     61 H27        -0.8971   -7.2393    4.0045 H         1 <0>         0.0477
     62 H28        -4.8186    3.7268   -2.5611 H         1 <0>         0.4341
@<TRIPOS>BOND
     1    1    2 1
     2    1   35 1
     3    1   36 1
     4    1   37 1
     5    2    3 1
     6    2   38 1
     7    2   39 1
     8    3    4 1
     9    3   17 1
    10    3   40 1
    11    4    5 1
    12    4   41 1
    13    4   42 1
    14    5   16 1
    15    5    6 1
    16    5   43 1
    17    6    7 1
    18    6   44 1
    19    6   45 1
    20    7    8 1
    21    7   46 1
    22    8   13 ar
    23    8    9 ar
    24    9   10 ar
    25    9   16 1
    26   10   11 ar
    27   10   15 1
    28   11   12 ar
    29   12   13 ar
    30   12   14 1
    31   13   62 1
    32   14   47 1
    33   14   48 1
    34   15   49 1
    35   15   50 1
    36   16   51 1
    37   17   22 ar
    38   17   18 ar
    39   18   19 ar
    40   18   52 1
    41   19   20 ar
    42   19   53 1
    43   20   21 ar
    44   20   23 1
    45   21   22 ar
    46   21   54 1
    47   22   55 1
    48   23   24 2
    49   23   25 am
    50   25   26 1
    51   25   56 1
    52   26   27 1
    53   26   32 1
    54   26   57 1
    55   27   28 1
    56   27   58 1
    57   27   59 1
    58   28   29 1
    59   28   60 1
    60   28   61 1
    61   29   30 2
    62   29   31 1
    63   32   33 2
    64   32   34 1
@<TRIPOS>MOLECULE
CHEMBL9973__6
   62    64     0     0     0
SMALL
USER_CHARGES

@<TRIPOS>ATOM
      1 C1          0.3147   -0.2912    1.6541 C.3       1 <0>        -0.1563
      2 C2         -0.1293   -0.1180    0.2002 C.3       1 <0>        -0.1171
      3 C3         -1.5552   -0.6476    0.0359 C.3       1 <0>        -0.0373
      4 C4         -2.0504   -0.3483   -1.3805 C.3       1 <0>        -0.1258
      5 C5         -2.1786    1.1649   -1.5669 C.3       1 <0>         0.1330
      6 C6         -2.6391    1.4737   -2.9988 C.3       1 <0>         0.1093
      7 N1         -3.9774    0.8951   -3.1903 N.pl3     1 <0>        -0.7007
      8 C7         -4.9364    1.0781   -2.2008 C.ar      1 <0>         0.4195
      9 C8         -4.5481    1.4760   -0.9231 C.ar      1 <0>         0.0011
     10 C9         -5.5266    1.6502    0.0507 C.ar      1 <0>         0.5071
     11 N2         -6.8002    1.4306   -0.2765 N.ar      1 <0>        -0.5665
     12 C10        -7.1322    1.0544   -1.5015 C.ar      1 <0>         0.6566
     13 N3         -6.2261    0.8786   -2.4528 N.ar      1 <0>        -0.5746
     14 N4         -8.4691    0.8371   -1.7986 N.pl3     1 <0>        -0.8019
     15 N5         -5.1833    2.0456    1.3378 N.pl3     1 <0>        -0.7929
     16 N6         -3.1875    1.6963   -0.6362 N.pl3     1 <0>        -0.7248
     17 C11        -1.5681   -2.1365    0.2683 C.ar      1 <0>        -0.0773
     18 C12        -0.8024   -2.9652   -0.5325 C.ar      1 <0>        -0.1265
     19 C13        -0.8096   -4.3291   -0.3250 C.ar      1 <0>        -0.0629
     20 C14        -1.5916   -4.8724    0.6955 C.ar      1 <0>        -0.1020
     21 C15        -2.3617   -4.0308    1.4997 C.ar      1 <0>        -0.0825
     22 C16        -2.3411   -2.6681    1.2852 C.ar      1 <0>        -0.1235
     23 C17        -1.6046   -6.3332    0.9233 C.2       1 <0>         0.5380
     24 O1         -0.9332   -7.0637    0.2211 O.2       1 <0>        -0.5493
     25 N7         -2.3608   -6.8548    1.9095 N.am      1 <0>        -0.6721
     26 C18        -2.3736   -8.3022    2.1352 C.3       1 <0>         0.0725
     27 C19        -3.6854   -8.7009    2.8142 C.3       1 <0>        -0.0835
     28 C20        -4.8542   -8.4288    1.8652 C.3       1 <0>        -0.1759
     29 C21        -6.1463   -8.8215    2.5340 C.2       1 <0>         0.4903
     30 O2         -6.1335   -9.2768    3.6650 O.co2     1 <0>        -0.6941
     31 O3         -7.2044   -8.6839    1.9442 O.co2     1 <0>        -0.7205
     32 C22        -1.2142   -8.6831    3.0194 C.2       1 <0>         0.4979
     33 O4         -0.7908   -7.8913    3.8442 O.co2     1 <0>        -0.6991
     34 O5         -0.6996   -9.7829    2.9099 O.co2     1 <0>        -0.6965
     35 H1          1.3574    0.0102    1.7540 H         1 <0>         0.0545
     36 H2         -0.3063    0.3295    2.3000 H         1 <0>         0.0500
     37 H3          0.2092   -1.3366    1.9441 H         1 <0>         0.0644
     38 H4         -0.1014    0.9389   -0.0648 H         1 <0>         0.0592
     39 H5          0.5425   -0.6743   -0.4535 H         1 <0>         0.0684
     40 H6         -2.2091   -0.1612    0.7597 H         1 <0>         0.0757
     41 H7         -1.3392   -0.7446   -2.1053 H         1 <0>         0.0830
     42 H8         -3.0228   -0.8167   -1.5321 H         1 <0>         0.0669
     43 H9         -1.2167    1.6416   -1.3782 H         1 <0>         0.1195
     44 H10        -2.6811    2.5528   -3.1463 H         1 <0>         0.0878
     45 H11        -1.9427    1.0320   -3.7116 H         1 <0>         0.1158
     46 H12        -4.1876    0.3943   -3.9940 H         1 <0>         0.4201
     47 H13        -9.1446    0.9611   -1.1135 H         1 <0>         0.4425
     48 H14        -8.7289    0.5611   -2.6915 H         1 <0>         0.4255
     49 H15        -4.2535    2.2030    1.5651 H         1 <0>         0.4230
     50 H16        -5.8734    2.1642    2.0091 H         1 <0>         0.4269
     51 H17        -2.9210    2.1870    0.1570 H         1 <0>         0.4106
     52 H18        -0.1980   -2.5435   -1.3220 H         1 <0>         0.1204
     53 H19        -0.2118   -4.9749   -0.9510 H         1 <0>         0.1352
     54 H20        -2.9690   -4.4450    2.2910 H         1 <0>         0.1302
     55 H21        -2.9331   -2.0154    1.9096 H         1 <0>         0.1180
     56 H22        -2.8965   -6.2718    2.4698 H         1 <0>         0.3902
     57 H23        -2.2872   -8.8197    1.1797 H         1 <0>         0.0790
     58 H24        -3.6582   -9.7619    3.0624 H         1 <0>         0.0752
     59 H25        -3.8144   -8.1177    3.7260 H         1 <0>         0.0605
     60 H26        -4.8814   -7.3678    1.6170 H         1 <0>         0.0475
     61 H27        -4.7252   -9.0120    0.9534 H         1 <0>         0.0529
     62 H28        -6.5062    0.6026   -3.3395 H         1 <0>         0.4357
@<TRIPOS>BOND
     1    1    2 1
     2    1   35 1
     3    1   36 1
     4    1   37 1
     5    2    3 1
     6    2   38 1
     7    2   39 1
     8    3    4 1
     9    3   17 1
    10    3   40 1
    11    4    5 1
    12    4   41 1
    13    4   42 1
    14    5   16 1
    15    5    6 1
    16    5   43 1
    17    6    7 1
    18    6   44 1
    19    6   45 1
    20    7    8 1
    21    7   46 1
    22    8   13 ar
    23    8    9 ar
    24    9   10 ar
    25    9   16 1
    26   10   11 ar
    27   10   15 1
    28   11   12 ar
    29   12   13 ar
    30   12   14 1
    31   13   62 1
    32   14   47 1
    33   14   48 1
    34   15   49 1
    35   15   50 1
    36   16   51 1
    37   17   22 ar
    38   17   18 ar
    39   18   19 ar
    40   18   52 1
    41   19   20 ar
    42   19   53 1
    43   20   21 ar
    44   20   23 1
    45   21   22 ar
    46   21   54 1
    47   22   55 1
    48   23   24 2
    49   23   25 am
    50   25   26 1
    51   25   56 1
    52   26   27 1
    53   26   32 1
    54   26   57 1
    55   27   28 1
    56   27   58 1
    57   27   59 1
    58   28   29 1
    59   28   60 1
    60   28   61 1
    61   29   30 2
    62   29   31 1
    63   32   33 2
    64   32   34 1
@<TRIPOS>MOLECULE
CHEMBL9973__7
   62    64     0     0     0
SMALL
USER_CHARGES

@<TRIPOS>ATOM
      1 C1          0.3147   -0.2912    1.6541 C.3       1 <0>        -0.1560
      2 C2         -0.1293   -0.1180    0.2002 C.3       1 <0>        -0.1171
      3 C3         -1.5552   -0.6476    0.0359 C.3       1 <0>        -0.0370
      4 C4         -2.0504   -0.3483   -1.3805 C.3       1 <0>        -0.1261
      5 C5         -2.1786    1.1649   -1.5669 C.3       1 <0>         0.1329
      6 C6         -2.6391    1.4737   -2.9988 C.3       1 <0>         0.1091
      7 N1         -3.9774    0.8951   -3.1903 N.pl3     1 <0>        -0.7003
      8 C7         -4.9364    1.0781   -2.2008 C.ar      1 <0>         0.4196
      9 C8         -4.5481    1.4760   -0.9231 C.ar      1 <0>         0.0015
     10 C9         -5.5266    1.6502    0.0507 C.ar      1 <0>         0.5066
     11 N2         -6.8002    1.4306   -0.2765 N.ar      1 <0>        -0.5667
     12 C10        -7.1322    1.0544   -1.5015 C.ar      1 <0>         0.6560
     13 N3         -6.2261    0.8786   -2.4528 N.ar      1 <0>        -0.5743
     14 N4         -8.4691    0.8371   -1.7986 N.pl3     1 <0>        -0.8026
     15 N5         -5.1833    2.0456    1.3378 N.pl3     1 <0>        -0.7928
     16 N6         -3.1875    1.6963   -0.6362 N.pl3     1 <0>        -0.7246
     17 C11        -1.5681   -2.1365    0.2683 C.ar      1 <0>        -0.0784
     18 C12        -0.8024   -2.9652   -0.5325 C.ar      1 <0>        -0.1264
     19 C13        -0.8096   -4.3291   -0.3250 C.ar      1 <0>        -0.0631
     20 C14        -1.5916   -4.8724    0.6955 C.ar      1 <0>        -0.0996
     21 C15        -2.3617   -4.0308    1.4997 C.ar      1 <0>        -0.0834
     22 C16        -2.3411   -2.6681    1.2852 C.ar      1 <0>        -0.1237
     23 C17        -1.6046   -6.3332    0.9233 C.2       1 <0>         0.5451
     24 O1         -0.9332   -7.0637    0.2211 O.2       1 <0>        -0.5508
     25 N7         -2.3608   -6.8548    1.9095 N.am      1 <0>        -0.6726
     26 C18        -2.3736   -8.3022    2.1352 C.3       1 <0>         0.0715
     27 C19        -2.7515   -8.5882    3.5899 C.3       1 <0>        -0.0809
     28 C20        -1.6623   -8.0438    4.5163 C.3       1 <0>        -0.1775
     29 C21        -2.0345   -8.3255    5.9491 C.2       1 <0>         0.4900
     30 O2         -3.0745   -8.9078    6.2057 O.co2     1 <0>        -0.6957
     31 O3         -1.2955   -7.9711    6.8519 O.co2     1 <0>        -0.7185
     32 C22        -3.3826   -8.9446    1.2185 C.2       1 <0>         0.4965
     33 O4         -4.0309   -8.2571    0.4480 O.co2     1 <0>        -0.7014
     34 O5         -3.5506  -10.1519    1.2472 O.co2     1 <0>        -0.6945
     35 H1          1.3574    0.0102    1.7540 H         1 <0>         0.0543
     36 H2         -0.3063    0.3295    2.3000 H         1 <0>         0.0501
     37 H3          0.2092   -1.3366    1.9441 H         1 <0>         0.0642
     38 H4         -0.1014    0.9389   -0.0648 H         1 <0>         0.0590
     39 H5          0.5425   -0.6743   -0.4535 H         1 <0>         0.0683
     40 H6         -2.2091   -0.1612    0.7597 H         1 <0>         0.0754
     41 H7         -1.3392   -0.7446   -2.1053 H         1 <0>         0.0832
     42 H8         -3.0228   -0.8167   -1.5321 H         1 <0>         0.0670
     43 H9         -1.2167    1.6416   -1.3782 H         1 <0>         0.1196
     44 H10        -2.6811    2.5528   -3.1463 H         1 <0>         0.0879
     45 H11        -1.9427    1.0320   -3.7116 H         1 <0>         0.1160
     46 H12        -4.1876    0.3943   -3.9940 H         1 <0>         0.4202
     47 H13        -9.1446    0.9611   -1.1135 H         1 <0>         0.4421
     48 H14        -8.7289    0.5611   -2.6915 H         1 <0>         0.4254
     49 H15        -4.2535    2.2030    1.5651 H         1 <0>         0.4232
     50 H16        -5.8734    2.1642    2.0091 H         1 <0>         0.4268
     51 H17        -2.9210    2.1870    0.1570 H         1 <0>         0.4106
     52 H18        -0.1980   -2.5435   -1.3220 H         1 <0>         0.1200
     53 H19        -0.2118   -4.9749   -0.9510 H         1 <0>         0.1349
     54 H20        -2.9690   -4.4450    2.2910 H         1 <0>         0.1292
     55 H21        -2.9331   -2.0154    1.9096 H         1 <0>         0.1174
     56 H22        -2.8965   -6.2718    2.4698 H         1 <0>         0.3881
     57 H23        -1.3842   -8.7108    1.9297 H         1 <0>         0.0797
     58 H24        -3.7003   -8.1039    3.8208 H         1 <0>         0.0546
     59 H25        -2.8478   -9.6642    3.7355 H         1 <0>         0.0813
     60 H26        -0.7135   -8.5281    4.2854 H         1 <0>         0.0531
     61 H27        -1.5659   -6.9679    4.3707 H         1 <0>         0.0477
     62 H28        -6.5062    0.6026   -3.3395 H         1 <0>         0.4357
@<TRIPOS>BOND
     1    1    2 1
     2    1   35 1
     3    1   36 1
     4    1   37 1
     5    2    3 1
     6    2   38 1
     7    2   39 1
     8    3    4 1
     9    3   17 1
    10    3   40 1
    11    4    5 1
    12    4   41 1
    13    4   42 1
    14    5   16 1
    15    5    6 1
    16    5   43 1
    17    6    7 1
    18    6   44 1
    19    6   45 1
    20    7    8 1
    21    7   46 1
    22    8   13 ar
    23    8    9 ar
    24    9   10 ar
    25    9   16 1
    26   10   11 ar
    27   10   15 1
    28   11   12 ar
    29   12   13 ar
    30   12   14 1
    31   13   62 1
    32   14   47 1
    33   14   48 1
    34   15   49 1
    35   15   50 1
    36   16   51 1
    37   17   22 ar
    38   17   18 ar
    39   18   19 ar
    40   18   52 1
    41   19   20 ar
    42   19   53 1
    43   20   21 ar
    44   20   23 1
    45   21   22 ar
    46   21   54 1
    47   22   55 1
    48   23   24 2
    49   23   25 am
    50   25   26 1
    51   25   56 1
    52   26   27 1
    53   26   32 1
    54   26   57 1
    55   27   28 1
    56   27   58 1
    57   27   59 1
    58   28   29 1
    59   28   60 1
    60   28   61 1
    61   29   30 2
    62   29   31 1
    63   32   33 2
    64   32   34 1
@<TRIPOS>MOLECULE
CHEMBL1093230
   54    56     0     0     0
SMALL
USER_CHARGES

@<TRIPOS>ATOM
      1 C1         -0.0157    1.3058    0.0092 C.2       1 <0>        -0.1746
      2 C2          0.0021   -0.0041    0.0020 C.2       1 <0>        -0.1784
      3 C3          1.3172   -0.7397   -0.0145 C.3       1 <0>         0.1479
      4 N1          1.3674   -1.6756    1.1115 N.pl3     1 <0>        -0.6170
      5 C4          0.8782   -3.0466    0.9468 C.3       1 <0>         0.1473
      6 C5          2.0084   -3.9315    0.4877 C.2       1 <0>        -0.1819
      7 C6          2.3125   -5.0103    1.1658 C.2       1 <0>        -0.1701
      8 C7          1.8826   -1.2600    2.3442 C.ar      1 <0>         0.2066
      9 C8          2.3419    0.0482    2.4977 C.ar      1 <0>        -0.1397
     10 C9          2.8490    0.4778    3.6903 C.ar      1 <0>        -0.0607
     11 C10         2.9123   -0.3988    4.7773 C.ar      1 <0>         0.1059
     12 C11         2.4483   -1.7252    4.6274 C.ar      1 <0>        -0.1436
     13 C12         1.9279   -2.1475    3.4046 C.ar      1 <0>        -0.1238
     14 C13         2.5279   -2.6239    5.7870 C.2       1 <0>         0.5550
     15 O1          2.1443   -3.7772    5.7188 O.2       1 <0>        -0.5065
     16 N2          3.0434   -2.1230    6.9334 N.am      1 <0>        -0.5212
     17 C14         3.4696   -0.8265    6.9941 C.2       1 <0>         0.3553
     18 N3          3.4098   -0.0063    5.9750 N.2       1 <0>        -0.5151
     19 S1          4.1313   -0.2303    8.5144 S.3       1 <0>        -0.0205
     20 C15         4.5623    1.4955    8.1586 C.3       1 <0>        -0.0725
     21 C16         5.1474    2.1319    9.3930 C.2       1 <0>        -0.1560
     22 C17         6.3969    2.5253    9.3975 C.2       1 <0>        -0.1525
     23 C18         3.1449   -2.9776    8.1190 C.3       1 <0>         0.1332
     24 C19         4.4787   -3.6792    8.1198 C.ar      1 <0>        -0.1209
     25 C20         4.6138   -4.9077    7.5006 C.ar      1 <0>        -0.0911
     26 C21         5.8372   -5.5512    7.5014 C.ar      1 <0>        -0.1251
     27 C22         6.9256   -4.9660    8.1209 C.ar      1 <0>        -0.1082
     28 C23         6.7907   -3.7370    8.7393 C.ar      1 <0>        -0.1238
     29 C24         5.5683   -3.0916    8.7348 C.ar      1 <0>        -0.0972
     30 H1          0.9122    1.8585    0.0033 H         1 <0>         0.0977
     31 H2         -0.9582    1.8330    0.0166 H         1 <0>         0.1002
     32 H3         -0.9258   -0.5567    0.0079 H         1 <0>         0.1099
     33 H4          1.4134   -1.2911   -0.9498 H         1 <0>         0.0858
     34 H5          2.1349   -0.0241    0.0711 H         1 <0>         0.0813
     35 H6          0.4943   -3.4123    1.8992 H         1 <0>         0.0813
     36 H7          0.0807   -3.0611    0.2039 H         1 <0>         0.0855
     37 H8          2.5676   -3.6763   -0.4003 H         1 <0>         0.1096
     38 H9          3.1225   -5.6445    0.8368 H         1 <0>         0.0997
     39 H10         1.7533   -5.2656    2.0538 H         1 <0>         0.0989
     40 H11         2.2962    0.7303    1.6616 H         1 <0>         0.1332
     41 H12         3.2011    1.4936    3.7936 H         1 <0>         0.1382
     42 H13         1.5678   -3.1586    3.2852 H         1 <0>         0.1374
     43 H14         5.2940    1.5282    7.3513 H         1 <0>         0.1012
     44 H15         3.6664    2.0394    7.8592 H         1 <0>         0.1063
     45 H16         4.5366    2.2635   10.2739 H         1 <0>         0.1212
     46 H17         7.0077    2.3937    8.5166 H         1 <0>         0.1019
     47 H18         6.8162    2.9814   10.2822 H         1 <0>         0.1084
     48 H19         3.0556   -2.3658    9.0166 H         1 <0>         0.1061
     49 H20         2.3450   -3.7179    8.1028 H         1 <0>         0.1117
     50 H21         3.7635   -5.3649    7.0166 H         1 <0>         0.1280
     51 H22         5.9426   -6.5114    7.0183 H         1 <0>         0.1236
     52 H23         7.8813   -5.4691    8.1221 H         1 <0>         0.1233
     53 H24         7.6410   -3.2800    9.2236 H         1 <0>         0.1253
     54 H25         5.4638   -2.1297    9.2147 H         1 <0>         0.1335
@<TRIPOS>BOND
     1    1    2 2
     2    1   30 1
     3    1   31 1
     4    2    3 1
     5    2   32 1
     6    3    4 1
     7    3   33 1
     8    3   34 1
     9    4    5 1
    10    4    8 1
    11    5    6 1
    12    5   35 1
    13    5   36 1
    14    6    7 2
    15    6   37 1
    16    7   38 1
    17    7   39 1
    18    8   13 ar
    19    8    9 ar
    20    9   10 ar
    21    9   40 1
    22   10   11 ar
    23   10   41 1
    24   11   18 1
    25   11   12 ar
    26   12   13 ar
    27   12   14 1
    28   13   42 1
    29   14   15 2
    30   14   16 am
    31   16   17 1
    32   16   23 1
    33   17   18 2
    34   17   19 1
    35   19   20 1
    36   20   21 1
    37   20   43 1
    38   20   44 1
    39   21   22 2
    40   21   45 1
    41   22   46 1
    42   22   47 1
    43   23   24 1
    44   23   48 1
    45   23   49 1
    46   24   29 ar
    47   24   25 ar
    48   25   26 ar
    49   25   50 1
    50   26   27 ar
    51   26   51 1
    52   27   28 ar
    53   27   52 1
    54   28   29 ar
    55   28   53 1
    56   29   54 1
@<TRIPOS>MOLECULE
CHEMBL104770
   45    47     0     0     0
SMALL
USER_CHARGES

@<TRIPOS>ATOM
      1 C1         -1.0677    2.8515    0.3307 C.3       1 <0>        -0.1286
      2 C2          0.2239    3.6715    0.3136 C.3       1 <0>        -0.1285
      3 C3         -0.0960    5.1333    0.6324 C.3       1 <0>        -0.1241
      4 C4          0.3231    5.4460    2.0701 C.3       1 <0>        -0.1215
      5 C5         -0.1048    4.2990    2.9882 C.3       1 <0>        -0.1426
      6 C6          1.1364    3.6472    3.6001 C.3       1 <0>        -0.0334
      7 C7          0.7314    2.7786    4.7628 C.2       1 <0>        -0.1517
      8 C8         -0.2144    1.8296    4.8021 C.2       1 <0>        -0.0608
      9 C9         -0.4344    1.0975    6.0383 C.ar      1 <0>        -0.2704
     10 C10        -1.3602    0.0557    6.3244 C.ar      1 <0>         0.5225
     11 N1         -1.3822   -0.4768    7.5345 N.ar      1 <0>        -0.6113
     12 C11        -0.5666   -0.0696    8.4995 C.ar      1 <0>         0.6140
     13 N2          0.3141    0.8991    8.2919 N.ar      1 <0>        -0.5578
     14 C12         0.3991    1.4804    7.1109 C.ar      1 <0>         0.1825
     15 S1          1.3972    2.7715    6.4170 S.3       1 <0>         0.0912
     16 N3         -0.6375   -0.6679    9.7468 N.pl3     1 <0>        -0.8129
     17 N4         -2.2284   -0.3952    5.3469 N.pl3     1 <0>        -0.8585
     18 C13        -1.0419    1.5259    3.5798 C.3       1 <0>        -0.0875
     19 C14        -0.1217    1.1148    2.4289 C.3       1 <0>        -0.1306
     20 C15        -0.9612    0.5445    1.2838 C.3       1 <0>        -0.1203
     21 C16        -0.7463    1.3872    0.0250 C.3       1 <0>        -0.1242
     22 H1         -1.5311    2.9241    1.3146 H         1 <0>         0.0721
     23 H2         -1.7534    3.2381   -0.4233 H         1 <0>         0.0608
     24 H3          0.9134    3.2791    1.0611 H         1 <0>         0.0714
     25 H4          0.6824    3.6068   -0.6732 H         1 <0>         0.0605
     26 H5          0.4481    5.7822   -0.0539 H         1 <0>         0.0614
     27 H6         -1.1669    5.3034    0.5211 H         1 <0>         0.0630
     28 H7          1.4059    5.5630    2.1155 H         1 <0>         0.0645
     29 H8         -0.1558    6.3695    2.3953 H         1 <0>         0.0629
     30 H9         -0.7406    4.6879    3.7835 H         1 <0>         0.0641
     31 H10        -0.6572    3.5578    2.4106 H         1 <0>         0.0963
     32 H11         1.6340    3.0363    2.8469 H         1 <0>         0.0874
     33 H12         1.8196    4.4224    3.9470 H         1 <0>         0.0792
     34 H13        -1.2789   -1.3774    9.9086 H         1 <0>         0.4174
     35 H14        -0.0458   -0.3774   10.4584 H         1 <0>         0.4180
     36 H15        -2.3282   -1.3469    5.1883 H         1 <0>         0.4068
     37 H16        -2.7377    0.2403    4.8199 H         1 <0>         0.4132
     38 H17        -1.7321    0.7119    3.8015 H         1 <0>         0.0836
     39 H18        -1.6067    2.4132    3.2940 H         1 <0>         0.0803
     40 H19         0.4302    1.9859    2.0759 H         1 <0>         0.0833
     41 H20         0.5799    0.3569    2.7775 H         1 <0>         0.0607
     42 H21        -0.6582   -0.4842    1.0885 H         1 <0>         0.0607
     43 H22        -2.0153    0.5665    1.5603 H         1 <0>         0.0626
     44 H23        -1.4025    1.0292   -0.7683 H         1 <0>         0.0604
     45 H24         0.2918    1.3025   -0.2962 H         1 <0>         0.0637
@<TRIPOS>BOND
     1    1   21 1
     2    1    2 1
     3    1   22 1
     4    1   23 1
     5    2    3 1
     6    2   24 1
     7    2   25 1
     8    3    4 1
     9    3   26 1
    10    3   27 1
    11    4    5 1
    12    4   28 1
    13    4   29 1
    14    5    6 1
    15    5   30 1
    16    5   31 1
    17    6    7 1
    18    6   32 1
    19    6   33 1
    20    7   15 1
    21    7    8 2
    22    8    9 1
    23    8   18 1
    24    9   14 ar
    25    9   10 ar
    26   10   11 ar
    27   10   17 1
    28   11   12 ar
    29   12   13 ar
    30   12   16 1
    31   13   14 ar
    32   14   15 1
    33   16   34 1
    34   16   35 1
    35   17   36 1
    36   17   37 1
    37   18   19 1
    38   18   38 1
    39   18   39 1
    40   19   20 1
    41   19   40 1
    42   19   41 1
    43   20   21 1
    44   20   42 1
    45   20   43 1
    46   21   44 1
    47   21   45 1
@<TRIPOS>MOLECULE
CHEMBL33389
   52    54     0     0     0
SMALL
USER_CHARGES

@<TRIPOS>ATOM
      1 C1          2.5365   -0.7487   -0.3545 C.3       1 <0>        -0.1706
      2 C2          1.1959   -1.3047    0.1296 C.3       1 <0>         0.4014
      3 N1          0.1952   -1.1814   -0.9368 N.pl3     1 <0>        -0.6964
      4 C3         -1.0582   -0.9579   -0.6435 C.cat     1 <0>         0.7283
      5 N2         -1.4741   -0.7894    0.6231 N.2       1 <0>        -0.6389
      6 C4         -0.6090   -0.5909    1.6007 C.2       1 <0>         0.7301
      7 N3          0.7297   -0.5330    1.2920 N.pl3     1 <0>        -0.5865
      8 C5          1.6177    0.2343    2.0569 C.ar      1 <0>         0.0416
      9 C6          1.7471    1.5952    1.8135 C.ar      1 <0>        -0.0571
     10 C7          2.6224    2.3511    2.5682 C.ar      1 <0>        -0.1376
     11 C8          3.3725    1.7510    3.5689 C.ar      1 <0>         0.1685
     12 C9          3.2437    0.3915    3.8127 C.ar      1 <0>        -0.1997
     13 C10         2.3647   -0.3645    3.0626 C.ar      1 <0>        -0.0612
     14 O1          4.2348    2.4958    4.3111 O.3       1 <0>        -0.2958
     15 C11         4.9753    1.8129    5.3247 C.3       1 <0>         0.0587
     16 C12         5.8853    2.8071    6.0487 C.3       1 <0>         0.0606
     17 O2          5.0857    3.7649    6.7452 O.3       1 <0>        -0.3139
     18 C13         5.7444    4.7268    7.4455 C.ar      1 <0>         0.0650
     19 C14         7.1312    4.7495    7.4558 C.ar      1 <0>        -0.1566
     20 C15         7.8010    5.7259    8.1667 C.ar      1 <0>        -0.1607
     21 C16         7.0856    6.6851    8.8714 C.ar      1 <0>         0.1877
     22 C17         5.6973    6.6616    8.8605 C.ar      1 <0>        -0.1592
     23 C18         5.0291    5.6878    8.1444 C.ar      1 <0>        -0.0972
     24 N4          7.7635    7.6746    9.5923 N.pl3     1 <0>        -0.8800
     25 N5         -1.0351   -0.4454    2.8917 N.pl3     1 <0>        -0.7699
     26 N6         -1.9833   -0.8924   -1.6659 N.pl3     1 <0>        -0.7932
     27 C19         1.3578   -2.7756    0.5184 C.3       1 <0>        -0.1804
     28 H1          3.2921   -0.8993    0.4166 H         1 <0>         0.1007
     29 H2          2.8377   -1.2674   -1.2645 H         1 <0>         0.0969
     30 H3          2.4349    0.3169   -0.5603 H         1 <0>         0.0828
     31 H4          1.1637    2.0624    1.0339 H         1 <0>         0.1330
     32 H5          2.7232    3.4096    2.3790 H         1 <0>         0.1468
     33 H6          3.8283   -0.0751    4.5917 H         1 <0>         0.1439
     34 H7          2.2612   -1.4221    3.2554 H         1 <0>         0.1364
     35 H8          4.2849    1.3651    6.0395 H         1 <0>         0.0810
     36 H9          5.5820    1.0314    4.8672 H         1 <0>         0.0898
     37 H10         6.5141    2.2723    6.7606 H         1 <0>         0.0876
     38 H11         6.5149    3.3196    5.3213 H         1 <0>         0.0747
     39 H12         7.6874    4.0032    6.9080 H         1 <0>         0.1255
     40 H13         8.8808    5.7433    8.1749 H         1 <0>         0.1242
     41 H14         5.1401    7.4072    9.4083 H         1 <0>         0.1288
     42 H15         3.9493    5.6722    8.1320 H         1 <0>         0.1297
     43 H16         8.7333    7.6905    9.6000 H         1 <0>         0.3989
     44 H17         7.2635    8.3444   10.0844 H         1 <0>         0.3993
     45 H18        -1.9756   -0.5469    3.1064 H         1 <0>         0.4399
     46 H19        -0.3970   -0.2405    3.5929 H         1 <0>         0.4301
     47 H20        -1.6989   -1.0116   -2.5856 H         1 <0>         0.4285
     48 H21        -2.9177   -0.7272   -1.4647 H         1 <0>         0.4405
     49 H22         2.0942   -2.8612    1.3175 H         1 <0>         0.0958
     50 H23         0.4009   -3.1679    0.8626 H         1 <0>         0.0712
     51 H24         1.6937   -3.3455   -0.3479 H         1 <0>         0.0960
     52 H25         0.4659   -1.2659   -1.8644 H         1 <0>         0.4309
@<TRIPOS>BOND
     1    1    2 1
     2    1   28 1
     3    1   29 1
     4    1   30 1
     5    2    7 1
     6    2    3 1
     7    2   27 1
     8    3    4 2
     9    3   52 1
    10    4    5 1
    11    4   26 1
    12    5    6 2
    13    6    7 1
    14    6   25 1
    15    7    8 1
    16    8   13 ar
    17    8    9 ar
    18    9   10 ar
    19    9   31 1
    20   10   11 ar
    21   10   32 1
    22   11   12 ar
    23   11   14 1
    24   12   13 ar
    25   12   33 1
    26   13   34 1
    27   14   15 1
    28   15   16 1
    29   15   35 1
    30   15   36 1
    31   16   17 1
    32   16   37 1
    33   16   38 1
    34   17   18 1
    35   18   23 ar
    36   18   19 ar
    37   19   20 ar
    38   19   39 1
    39   20   21 ar
    40   20   40 1
    41   21   22 ar
    42   21   24 1
    43   22   23 ar
    44   22   41 1
    45   23   42 1
    46   24   43 1
    47   24   44 1
    48   25   45 1
    49   25   46 1
    50   26   47 1
    51   26   48 1
    52   27   49 1
    53   27   50 1
    54   27   51 1
@<TRIPOS>MOLECULE
CHEMBL1093519
   56    59     0     0     0
SMALL
USER_CHARGES

@<TRIPOS>ATOM
      1 C1         -0.0479    1.2566    0.0308 C.2       1 <0>        -0.1506
      2 C2         -0.0232   -0.0530    0.0149 C.2       1 <0>        -0.1574
      3 C3          1.2958   -0.7816   -0.0038 C.3       1 <0>        -0.0742
      4 S1          1.4872   -1.7252    1.5336 S.3       1 <0>        -0.0110
      5 C4          3.0555   -2.5093    1.3602 C.2       1 <0>         0.3728
      6 N1          3.7439   -2.2933    0.2670 N.2       1 <0>        -0.5281
      7 C5          4.9565   -2.8636    0.0687 C.ar      1 <0>         0.1532
      8 C6          5.6904   -2.6318   -1.0985 C.ar      1 <0>        -0.0925
      9 C7          6.9096   -3.2229   -1.2646 C.ar      1 <0>        -0.0909
     10 C8          7.4396   -4.0603   -0.2828 C.ar      1 <0>         0.1213
     11 C9          6.7352   -4.3075    0.8823 C.ar      1 <0>        -0.0392
     12 C10         5.4888   -3.7111    1.0667 C.ar      1 <0>        -0.1804
     13 C11         4.6951   -3.9357    2.2827 C.2       1 <0>         0.5569
     14 O1          5.1009   -4.6549    3.1771 O.2       1 <0>        -0.4959
     15 N2          3.4991   -3.3095    2.3744 N.am      1 <0>        -0.5227
     16 C12         2.6711   -3.4953    3.5686 C.3       1 <0>         0.1316
     17 C13         1.7600   -4.6790    3.3689 C.ar      1 <0>        -0.1222
     18 C14         0.5100   -4.5017    2.8059 C.ar      1 <0>        -0.0980
     19 C15        -0.3258   -5.5874    2.6226 C.ar      1 <0>        -0.1237
     20 C16         0.0885   -6.8504    3.0020 C.ar      1 <0>        -0.1074
     21 C17         1.3389   -7.0278    3.5643 C.ar      1 <0>        -0.1244
     22 C18         2.1764   -5.9427    3.7435 C.ar      1 <0>        -0.0908
     23 N3          8.6917   -4.6548   -0.4777 N.am      1 <0>        -0.6674
     24 C19         9.5197   -4.8407    0.5693 C.2       1 <0>         0.5474
     25 O2          9.1469   -4.5692    1.6957 O.2       1 <0>        -0.5203
     26 C20        10.8674   -5.3693    0.3519 C.2       1 <0>        -0.2213
     27 C21        11.6957   -5.5554    1.3993 C.2       1 <0>        -0.0033
     28 C22        13.0509   -6.0869    1.1807 C.ar      1 <0>        -0.0833
     29 C23        13.4849   -6.3947   -0.1126 C.ar      1 <0>        -0.0990
     30 C24        14.7557   -6.8923   -0.3093 C.ar      1 <0>        -0.1231
     31 C25        15.6010   -7.0873    0.7692 C.ar      1 <0>        -0.1048
     32 C26        15.1788   -6.7851    2.0521 C.ar      1 <0>        -0.1227
     33 C27        13.9129   -6.2813    2.2645 C.ar      1 <0>        -0.0914
     34 H1          0.8770    1.8142    0.0305 H         1 <0>         0.1023
     35 H2         -0.9932    1.7789    0.0396 H         1 <0>         0.1090
     36 H3         -0.9482   -0.6106    0.0152 H         1 <0>         0.1217
     37 H4          1.3224   -1.4631   -0.8541 H         1 <0>         0.1080
     38 H5          2.1082   -0.0602   -0.0908 H         1 <0>         0.1022
     39 H6          5.2932   -1.9862   -1.8678 H         1 <0>         0.1440
     40 H7          7.4714   -3.0401   -2.1687 H         1 <0>         0.1386
     41 H8          7.1472   -4.9558    1.6415 H         1 <0>         0.1559
     42 H9          3.3128   -3.6724    4.4317 H         1 <0>         0.1137
     43 H10         2.0724   -2.6005    3.7385 H         1 <0>         0.1074
     44 H11         0.1862   -3.5149    2.5094 H         1 <0>         0.1332
     45 H12        -1.3027   -5.4488    2.1834 H         1 <0>         0.1258
     46 H13        -0.5647   -7.6986    2.8596 H         1 <0>         0.1238
     47 H14         1.6625   -8.0146    3.8610 H         1 <0>         0.1243
     48 H15         3.1547   -6.0819    4.1793 H         1 <0>         0.1287
     49 H16         8.9636   -4.9328   -1.3664 H         1 <0>         0.4144
     50 H17        11.1982   -5.6103   -0.6476 H         1 <0>         0.1337
     51 H18        11.3650   -5.3144    2.3988 H         1 <0>         0.1384
     52 H19        12.8262   -6.2435   -0.9550 H         1 <0>         0.1277
     53 H20        15.0922   -7.1309   -1.3074 H         1 <0>         0.1271
     54 H21        16.5951   -7.4776    0.6088 H         1 <0>         0.1258
     55 H22        15.8442   -6.9399    2.8886 H         1 <0>         0.1278
     56 H23        13.5864   -6.0417    3.2657 H         1 <0>         0.1294
@<TRIPOS>BOND
     1    1    2 2
     2    1   34 1
     3    1   35 1
     4    2    3 1
     5    2   36 1
     6    3    4 1
     7    3   37 1
     8    3   38 1
     9    4    5 1
    10    5   15 1
    11    5    6 2
    12    6    7 1
    13    7   12 ar
    14    7    8 ar
    15    8    9 ar
    16    8   39 1
    17    9   10 ar
    18    9   40 1
    19   10   11 ar
    20   10   23 1
    21   11   12 ar
    22   11   41 1
    23   12   13 1
    24   13   14 2
    25   13   15 am
    26   15   16 1
    27   16   17 1
    28   16   42 1
    29   16   43 1
    30   17   22 ar
    31   17   18 ar
    32   18   19 ar
    33   18   44 1
    34   19   20 ar
    35   19   45 1
    36   20   21 ar
    37   20   46 1
    38   21   22 ar
    39   21   47 1
    40   22   48 1
    41   23   24 am
    42   23   49 1
    43   24   25 2
    44   24   26 1
    45   26   27 2
    46   26   50 1
    47   27   28 1
    48   27   51 1
    49   28   33 ar
    50   28   29 ar
    51   29   30 ar
    52   29   52 1
    53   30   31 ar
    54   30   53 1
    55   31   32 ar
    56   31   54 1
    57   32   33 ar
    58   32   55 1
    59   33   56 1
@<TRIPOS>MOLECULE
CHEMBL594320
   43    46     0     0     0
SMALL
USER_CHARGES

@<TRIPOS>ATOM
      1 C1         -0.2518    1.2711   -0.0224 C.3       1 <0>         0.0227
      2 O1         -0.1257   -0.1522   -0.0398 O.3       1 <0>        -0.3065
      3 C2          0.5487   -0.6989   -1.0846 C.ar      1 <0>         0.1460
      4 C3          1.0831    0.1148   -2.0693 C.ar      1 <0>        -0.2077
      5 C4          1.7689   -0.4424   -3.1327 C.ar      1 <0>        -0.0646
      6 C5          1.9274   -1.8148   -3.2219 C.ar      1 <0>        -0.1537
      7 C6          1.4021   -2.6400   -2.2498 C.ar      1 <0>        -0.0755
      8 C7          0.7115   -2.0890   -1.1674 C.ar      1 <0>        -0.1215
      9 C8          0.1526   -2.9637   -0.1225 C.2       1 <0>         0.0323
     10 C9          0.7384   -3.0266    1.0854 C.2       1 <0>        -0.1226
     11 C10         2.0149   -2.3323    1.3215 C.2       1 <0>        -0.0508
     12 C11         2.8778   -1.8608    0.3843 C.2       1 <0>        -0.0011
     13 O2          3.9343   -1.2871    0.9872 O.3       1 <0>        -0.1446
     14 C12         3.8258   -1.3488    2.3254 C.ar      1 <0>         0.3156
     15 C13         2.6189   -1.9989    2.6233 C.ar      1 <0>        -0.2580
     16 C14         2.2605   -2.1879    3.9628 C.ar      1 <0>         0.5804
     17 N1          3.0816   -1.7379    4.9077 N.ar      1 <0>        -0.5777
     18 C15         4.2136   -1.1245    4.5881 C.ar      1 <0>         0.6967
     19 N2          4.5896   -0.9351    3.3338 N.ar      1 <0>        -0.5522
     20 N3          5.0366   -0.6727    5.6057 N.pl3     1 <0>        -0.7842
     21 N4          1.0799   -2.8271    4.2964 N.pl3     1 <0>        -0.7673
     22 C16        -1.0762   -3.7882   -0.4080 C.3       1 <0>        -0.1360
     23 C17        -1.5782   -3.8312   -1.8526 C.3       1 <0>        -0.1665
     24 C18        -2.3537   -3.0412   -0.7964 C.3       1 <0>        -0.1581
     25 H1          0.7397    1.7234    0.0001 H         1 <0>         0.0554
     26 H2         -0.7810    1.6000   -0.9168 H         1 <0>         0.0625
     27 H3         -0.8102    1.5756    0.8628 H         1 <0>         0.1042
     28 H4          0.9637    1.1863   -2.0068 H         1 <0>         0.1356
     29 H5          2.1832    0.1967   -3.8985 H         1 <0>         0.1339
     30 H6          2.4644   -2.2410   -4.0564 H         1 <0>         0.1362
     31 H7          1.5275   -3.7102   -2.3231 H         1 <0>         0.1411
     32 H8          0.2726   -3.5865    1.8830 H         1 <0>         0.1317
     33 H9          2.7371   -1.9360   -0.6838 H         1 <0>         0.2419
     34 H10         4.7813   -0.8071    6.5318 H         1 <0>         0.4489
     35 H11         5.8686   -0.2218    5.3925 H         1 <0>         0.4320
     36 H12         0.4893   -3.1504    3.5981 H         1 <0>         0.4311
     37 H13         0.8427   -2.9520    5.2286 H         1 <0>         0.4306
     38 H14        -1.1844   -4.6932    0.1899 H         1 <0>         0.1223
     39 H15        -1.0198   -3.2631   -2.5966 H         1 <0>         0.1009
     40 H16        -2.0168   -4.7646   -2.2055 H         1 <0>         0.1038
     41 H17        -3.3023   -3.4549   -0.4544 H         1 <0>         0.1034
     42 H18        -2.3054   -1.9534   -0.8455 H         1 <0>         0.0978
     43 H19         5.4256   -0.4798    3.1471 H         1 <0>         0.4418
@<TRIPOS>BOND
     1    1    2 1
     2    1   25 1
     3    1   26 1
     4    1   27 1
     5    2    3 1
     6    3    8 ar
     7    3    4 ar
     8    4    5 ar
     9    4   28 1
    10    5    6 ar
    11    5   29 1
    12    6    7 ar
    13    6   30 1
    14    7    8 ar
    15    7   31 1
    16    8    9 1
    17    9   10 2
    18    9   22 1
    19   10   11 1
    20   10   32 1
    21   11   15 1
    22   11   12 2
    23   12   13 1
    24   12   33 1
    25   13   14 1
    26   14   19 ar
    27   14   15 ar
    28   15   16 ar
    29   16   17 ar
    30   16   21 1
    31   17   18 ar
    32   18   19 ar
    33   18   20 1
    34   19   43 1
    35   20   34 1
    36   20   35 1
    37   21   36 1
    38   21   37 1
    39   22   24 1
    40   22   23 1
    41   22   38 1
    42   23   24 1
    43   23   39 1
    44   23   40 1
    45   24   41 1
    46   24   42 1
@<TRIPOS>MOLECULE
CHEMBL594320__1
   42    45     0     0     0
SMALL
USER_CHARGES

@<TRIPOS>ATOM
      1 C1         -0.2518    1.2711   -0.0224 C.3       1 <0>         0.0248
      2 O1         -0.1257   -0.1522   -0.0398 O.3       1 <0>        -0.3022
      3 C2          0.5487   -0.6989   -1.0846 C.ar      1 <0>         0.1469
      4 C3          1.0831    0.1148   -2.0693 C.ar      1 <0>        -0.2085
      5 C4          1.7689   -0.4424   -3.1327 C.ar      1 <0>        -0.0737
      6 C5          1.9274   -1.8148   -3.2219 C.ar      1 <0>        -0.1574
      7 C6          1.4021   -2.6400   -2.2498 C.ar      1 <0>        -0.0796
      8 C7          0.7115   -2.0890   -1.1674 C.ar      1 <0>        -0.0915
      9 C8          0.1526   -2.9637   -0.1225 C.2       1 <0>        -0.0284
     10 C9          0.7384   -3.0266    1.0854 C.2       1 <0>        -0.0738
     11 C10         2.0149   -2.3323    1.3215 C.2       1 <0>        -0.0874
     12 C11         2.8778   -1.8608    0.3843 C.2       1 <0>        -0.0190
     13 O2          3.9343   -1.2871    0.9872 O.3       1 <0>        -0.1759
     14 C12         3.8258   -1.3488    2.3254 C.ar      1 <0>         0.3648
     15 C13         2.6189   -1.9989    2.6233 C.ar      1 <0>        -0.3268
     16 C14         2.2605   -2.1879    3.9628 C.ar      1 <0>         0.5334
     17 N1          3.0816   -1.7379    4.9077 N.ar      1 <0>        -0.6304
     18 C15         4.2136   -1.1245    4.5881 C.ar      1 <0>         0.6350
     19 N2          4.5896   -0.9351    3.3338 N.ar      1 <0>        -0.5987
     20 N3          5.0366   -0.6727    5.6057 N.pl3     1 <0>        -0.8139
     21 N4          1.0799   -2.8271    4.2964 N.pl3     1 <0>        -0.8236
     22 C16        -1.0762   -3.7882   -0.4080 C.3       1 <0>        -0.1174
     23 C17        -1.5782   -3.8312   -1.8526 C.3       1 <0>        -0.1723
     24 C18        -2.3537   -3.0412   -0.7964 C.3       1 <0>        -0.1653
     25 H1          0.7397    1.7234    0.0001 H         1 <0>         0.0558
     26 H2         -0.7810    1.6000   -0.9168 H         1 <0>         0.0568
     27 H3         -0.8102    1.5756    0.8628 H         1 <0>         0.1008
     28 H4          0.9637    1.1863   -2.0068 H         1 <0>         0.1312
     29 H5          2.1832    0.1967   -3.8985 H         1 <0>         0.1281
     30 H6          2.4644   -2.2410   -4.0564 H         1 <0>         0.1300
     31 H7          1.5275   -3.7102   -2.3231 H         1 <0>         0.1359
     32 H8          0.2726   -3.5865    1.8830 H         1 <0>         0.1222
     33 H9          2.7371   -1.9360   -0.6838 H         1 <0>         0.2187
     34 H10         4.7813   -0.8071    6.5318 H         1 <0>         0.4176
     35 H11         5.8686   -0.2218    5.3925 H         1 <0>         0.4170
     36 H12         0.4893   -3.1504    3.5981 H         1 <0>         0.4123
     37 H13         0.8427   -2.9520    5.2286 H         1 <0>         0.4097
     38 H14        -1.1844   -4.6932    0.1899 H         1 <0>         0.1156
     39 H15        -1.0198   -3.2631   -2.5966 H         1 <0>         0.0988
     40 H16        -2.0168   -4.7646   -2.2055 H         1 <0>         0.0975
     41 H17        -3.3023   -3.4549   -0.4544 H         1 <0>         0.0971
     42 H18        -2.3054   -1.9534   -0.8455 H         1 <0>         0.0957
@<TRIPOS>BOND
     1    1    2 1
     2    1   25 1
     3    1   26 1
     4    1   27 1
     5    2    3 1
     6    3    8 ar
     7    3    4 ar
     8    4    5 ar
     9    4   28 1
    10    5    6 ar
    11    5   29 1
    12    6    7 ar
    13    6   30 1
    14    7    8 ar
    15    7   31 1
    16    8    9 1
    17    9   10 2
    18    9   22 1
    19   10   11 1
    20   10   32 1
    21   11   15 1
    22   11   12 2
    23   12   13 1
    24   12   33 1
    25   13   14 1
    26   14   19 ar
    27   14   15 ar
    28   15   16 ar
    29   16   17 ar
    30   16   21 1
    31   17   18 ar
    32   18   19 ar
    33   18   20 1
    34   20   34 1
    35   20   35 1
    36   21   36 1
    37   21   37 1
    38   22   24 1
    39   22   23 1
    40   22   38 1
    41   23   24 1
    42   23   39 1
    43   23   40 1
    44   24   41 1
    45   24   42 1
@<TRIPOS>MOLECULE
CHEMBL358297
   43    46     0     0     0
SMALL
USER_CHARGES

@<TRIPOS>ATOM
      1 C1          0.6022    1.5059    0.0255 C.3       1 <0>        -0.1584
      2 C2          0.5973   -0.0011    0.0166 C.ar      1 <0>         0.0617
      3 C3          0.7703   -0.7002   -1.1493 C.ar      1 <0>        -0.2238
      4 C4          0.7623   -2.0894   -1.1309 C.ar      1 <0>         0.2101
      5 N1          0.5918   -2.7658   -0.0168 N.ar      1 <0>        -0.4870
      6 C5          0.4184   -2.1439    1.1496 C.ar      1 <0>         0.4170
      7 C6          0.4217   -0.7279    1.1996 C.ar      1 <0>        -0.2803
      8 C7          0.2403   -0.0941    2.4537 C.ar      1 <0>         0.5248
      9 N2          0.0804   -0.8575    3.5254 N.ar      1 <0>        -0.6161
     10 C8          0.0885   -2.1844    3.4358 C.ar      1 <0>         0.6253
     11 N3          0.2432   -2.8239    2.2916 N.ar      1 <0>        -0.5908
     12 N4         -0.0833   -2.9256    4.5892 N.pl3     1 <0>        -0.8098
     13 N5          0.2308    1.2796    2.5567 N.pl3     1 <0>        -0.8451
     14 C9          0.9685    0.0364   -2.4490 C.3       1 <0>         0.1621
     15 N6          2.3849    0.3754   -2.6071 N.pl3     1 <0>        -0.4790
     16 C10         2.9527    1.5675   -2.2490 C.2       1 <0>         0.0570
     17 C11         4.2658    1.5512   -2.5275 C.2       1 <0>        -0.2069
     18 C12         4.5641    0.2415   -3.1120 C.ar      1 <0>        -0.0702
     19 C13         3.3461   -0.4616   -3.1337 C.ar      1 <0>         0.0714
     20 C14         3.3120   -1.7578   -3.6361 C.ar      1 <0>        -0.0894
     21 C15         4.4662   -2.3454   -4.1044 C.ar      1 <0>        -0.1761
     22 C16         5.6741   -1.6534   -4.0809 C.ar      1 <0>         0.0997
     23 C17         5.7273   -0.3623   -3.5939 C.ar      1 <0>        -0.1117
     24 O1          6.8046   -2.2485   -4.5468 O.3       1 <0>        -0.3198
     25 C18         6.6780   -3.5821   -5.0443 C.3       1 <0>         0.0283
     26 H1          1.5936    1.8644    0.3022 H         1 <0>         0.0900
     27 H2          0.3459    1.8760   -0.9672 H         1 <0>         0.0823
     28 H3         -0.1296    1.8673    0.7480 H         1 <0>         0.1028
     29 H4          0.8995   -2.6280   -2.0569 H         1 <0>         0.1626
     30 H5         -0.2064   -2.4769    5.4403 H         1 <0>         0.4165
     31 H6         -0.0809   -3.8947    4.5477 H         1 <0>         0.4191
     32 H7         -0.4109    1.7180    3.1371 H         1 <0>         0.4111
     33 H8          0.8658    1.8084    2.0488 H         1 <0>         0.4182
     34 H9          0.6518   -0.5971   -3.2776 H         1 <0>         0.0982
     35 H10         0.3746    0.9504   -2.4428 H         1 <0>         0.1034
     36 H11         2.4228    2.3986   -1.8076 H         1 <0>         0.1663
     37 H12         4.9691    2.3522   -2.3536 H         1 <0>         0.1472
     38 H13         2.3805   -2.3039   -3.6587 H         1 <0>         0.1210
     39 H14         4.4342   -3.3525   -4.4931 H         1 <0>         0.1315
     40 H15         6.6651    0.1729   -3.5750 H         1 <0>         0.1298
     41 H16         6.3103   -4.2326   -4.2507 H         1 <0>         0.0540
     42 H17         5.9760   -3.5937   -5.8780 H         1 <0>         0.0540
     43 H18         7.6510   -3.9372   -5.3836 H         1 <0>         0.0987
@<TRIPOS>BOND
     1    1    2 1
     2    1   26 1
     3    1   27 1
     4    1   28 1
     5    2    7 ar
     6    2    3 ar
     7    3    4 ar
     8    3   14 1
     9    4    5 ar
    10    4   29 1
    11    5    6 ar
    12    6   11 ar
    13    6    7 ar
    14    7    8 ar
    15    8    9 ar
    16    8   13 1
    17    9   10 ar
    18   10   11 ar
    19   10   12 1
    20   12   30 1
    21   12   31 1
    22   13   32 1
    23   13   33 1
    24   14   15 1
    25   14   34 1
    26   14   35 1
    27   15   19 1
    28   15   16 1
    29   16   17 2
    30   16   36 1
    31   17   18 1
    32   17   37 1
    33   18   23 ar
    34   18   19 ar
    35   19   20 ar
    36   20   21 ar
    37   20   38 1
    38   21   22 ar
    39   21   39 1
    40   22   23 ar
    41   22   24 1
    42   23   40 1
    43   24   25 1
    44   25   41 1
    45   25   42 1
    46   25   43 1
@<TRIPOS>MOLECULE
CHEMBL358297__1
   44    47     0     0     0
SMALL
USER_CHARGES

@<TRIPOS>ATOM
      1 C1          0.6022    1.5059    0.0255 C.3       1 <0>        -0.1722
      2 C2          0.5973   -0.0011    0.0166 C.ar      1 <0>         0.0788
      3 C3          0.7703   -0.7002   -1.1493 C.ar      1 <0>        -0.1809
      4 C4          0.7623   -2.0894   -1.1309 C.ar      1 <0>         0.2388
      5 N1          0.5918   -2.7658   -0.0168 N.ar      1 <0>        -0.4964
      6 C5          0.4184   -2.1439    1.1496 C.ar      1 <0>         0.4075
      7 C6          0.4217   -0.7279    1.1996 C.ar      1 <0>        -0.2387
      8 C7          0.2403   -0.0941    2.4537 C.ar      1 <0>         0.5792
      9 N2          0.0804   -0.8575    3.5254 N.ar      1 <0>        -0.5774
     10 C8          0.0885   -2.1844    3.4358 C.ar      1 <0>         0.6996
     11 N3          0.2432   -2.8239    2.2916 N.ar      1 <0>        -0.5720
     12 N4         -0.0833   -2.9256    4.5892 N.pl3     1 <0>        -0.7766
     13 N5          0.2308    1.2796    2.5567 N.pl3     1 <0>        -0.8027
     14 C9          0.9685    0.0364   -2.4490 C.3       1 <0>         0.1541
     15 N6          2.3849    0.3754   -2.6071 N.pl3     1 <0>        -0.4875
     16 C10         2.9527    1.5675   -2.2490 C.2       1 <0>         0.0458
     17 C11         4.2658    1.5512   -2.5275 C.2       1 <0>        -0.1912
     18 C12         4.5641    0.2415   -3.1120 C.ar      1 <0>        -0.0678
     19 C13         3.3461   -0.4616   -3.1337 C.ar      1 <0>         0.0656
     20 C14         3.3120   -1.7578   -3.6361 C.ar      1 <0>        -0.0968
     21 C15         4.4662   -2.3454   -4.1044 C.ar      1 <0>        -0.1713
     22 C16         5.6741   -1.6534   -4.0809 C.ar      1 <0>         0.1065
     23 C17         5.7273   -0.3623   -3.5939 C.ar      1 <0>        -0.1081
     24 O1          6.8046   -2.2485   -4.5468 O.3       1 <0>        -0.3166
     25 C18         6.6780   -3.5821   -5.0443 C.3       1 <0>         0.0270
     26 H1          1.5936    1.8644    0.3022 H         1 <0>         0.1093
     27 H2          0.3459    1.8760   -0.9672 H         1 <0>         0.1032
     28 H3         -0.1296    1.8673    0.7480 H         1 <0>         0.1092
     29 H4          0.8995   -2.6280   -2.0569 H         1 <0>         0.1894
     30 H5         -0.2064   -2.4769    5.4403 H         1 <0>         0.4484
     31 H6         -0.0809   -3.8947    4.5477 H         1 <0>         0.4340
     32 H7         -0.4109    1.7180    3.1371 H         1 <0>         0.4312
     33 H8          0.8658    1.8084    2.0488 H         1 <0>         0.4359
     34 H9          0.6518   -0.5971   -3.2776 H         1 <0>         0.1098
     35 H10         0.3746    0.9504   -2.4428 H         1 <0>         0.1149
     36 H11         2.4228    2.3986   -1.8076 H         1 <0>         0.1689
     37 H12         4.9691    2.3522   -2.3536 H         1 <0>         0.1516
     38 H13         2.3805   -2.3039   -3.6587 H         1 <0>         0.1190
     39 H14         4.4342   -3.3525   -4.4931 H         1 <0>         0.1346
     40 H15         6.6651    0.1729   -3.5750 H         1 <0>         0.1343
     41 H16         6.3103   -4.2326   -4.2507 H         1 <0>         0.0541
     42 H17         5.9760   -3.5937   -5.8780 H         1 <0>         0.0563
     43 H18         7.6510   -3.9372   -5.3836 H         1 <0>         0.1029
     44 H19         0.2412   -3.7938    2.2786 H         1 <0>         0.4462
@<TRIPOS>BOND
     1    1    2 1
     2    1   26 1
     3    1   27 1
     4    1   28 1
     5    2    7 ar
     6    2    3 ar
     7    3    4 ar
     8    3   14 1
     9    4    5 ar
    10    4   29 1
    11    5    6 ar
    12    6   11 ar
    13    6    7 ar
    14    7    8 ar
    15    8    9 ar
    16    8   13 1
    17    9   10 ar
    18   10   11 ar
    19   10   12 1
    20   11   44 1
    21   12   30 1
    22   12   31 1
    23   13   32 1
    24   13   33 1
    25   14   15 1
    26   14   34 1
    27   14   35 1
    28   15   19 1
    29   15   16 1
    30   16   17 2
    31   16   36 1
    32   17   18 1
    33   17   37 1
    34   18   23 ar
    35   18   19 ar
    36   19   20 ar
    37   20   21 ar
    38   20   38 1
    39   21   22 ar
    40   21   39 1
    41   22   23 ar
    42   22   24 1
    43   23   40 1
    44   24   25 1
    45   25   41 1
    46   25   42 1
    47   25   43 1
@<TRIPOS>MOLECULE
CHEMBL29143
   24    25     0     0     0
SMALL
USER_CHARGES

@<TRIPOS>ATOM
      1 C1         -0.0184    1.5028    0.0103 C.3       1 <0>        -0.0984
      2 C2          0.0021   -0.0041    0.0020 C.ar      1 <0>         0.0483
      3 C3          0.0057   -0.6878   -1.2133 C.ar      1 <0>         0.1688
      4 N1          0.0238   -2.0034   -1.2461 N.ar      1 <0>        -0.4447
      5 C4          0.0390   -2.6907   -0.1014 C.ar      1 <0>         0.3741
      6 C5          0.0353   -1.9908    1.1310 C.ar      1 <0>        -0.0967
      7 N2          0.0218   -0.6617    1.1418 N.ar      1 <0>        -0.3824
      8 C6          0.0528   -2.7788    2.3646 C.ar      1 <0>         0.5430
      9 N3          0.0711   -4.0997    2.2519 N.ar      1 <0>        -0.6288
     10 C7          0.0734   -4.6906    1.0612 C.ar      1 <0>         0.6388
     11 N4          0.0582   -4.0292   -0.0789 N.ar      1 <0>        -0.6027
     12 N5          0.0929   -6.0716    1.0162 N.pl3     1 <0>        -0.8076
     13 N6          0.0508   -2.1689    3.5999 N.pl3     1 <0>        -0.7928
     14 C8         -0.0119    0.0889   -2.5046 C.3       1 <0>        -0.1130
     15 H1          1.0042    1.8801    0.0026 H         1 <0>         0.0823
     16 H2         -0.5455    1.8639   -0.8728 H         1 <0>         0.0846
     17 H3         -0.5286    1.8543    0.9071 H         1 <0>         0.0793
     18 H4          0.1044   -6.5836    1.8400 H         1 <0>         0.4169
     19 H5          0.0951   -6.5290    0.1608 H         1 <0>         0.4195
     20 H6          0.0376   -1.2010    3.6630 H         1 <0>         0.4255
     21 H7          0.0626   -2.7073    4.4067 H         1 <0>         0.4160
     22 H8          1.0114    0.2908   -2.8212 H         1 <0>         0.0925
     23 H9         -0.5214   -0.4937   -3.2722 H         1 <0>         0.0870
     24 H10        -0.5385    1.0314   -2.3546 H         1 <0>         0.0906
@<TRIPOS>BOND
     1    1    2 1
     2    1   15 1
     3    1   16 1
     4    1   17 1
     5    2    7 ar
     6    2    3 ar
     7    3    4 ar
     8    3   14 1
     9    4    5 ar
    10    5   11 ar
    11    5    6 ar
    12    6    7 ar
    13    6    8 ar
    14    8    9 ar
    15    8   13 1
    16    9   10 ar
    17   10   11 ar
    18   10   12 1
    19   12   18 1
    20   12   19 1
    21   13   20 1
    22   13   21 1
    23   14   22 1
    24   14   23 1
    25   14   24 1
@<TRIPOS>MOLECULE
CHEMBL1093994
   74    78     0     0     0
SMALL
USER_CHARGES

@<TRIPOS>ATOM
      1 C1         -0.0157    1.3058    0.0092 C.2       1 <0>        -0.1522
      2 C2          0.0021   -0.0041    0.0020 C.2       1 <0>        -0.1563
      3 C3          1.3172   -0.7397   -0.0145 C.3       1 <0>        -0.0723
      4 S1          1.5068   -1.6740    1.5288 S.3       1 <0>        -0.0203
      5 C4          3.0707   -2.4675    1.3573 C.2       1 <0>         0.3563
      6 N1          3.5097   -3.2677    2.3737 N.am      1 <0>        -0.5212
      7 C5          4.7043   -3.8972    2.2859 C.2       1 <0>         0.5543
      8 O1          5.1077   -4.6131    3.1841 O.2       1 <0>        -0.5055
      9 C6          5.4966   -3.6855    1.0667 C.ar      1 <0>        -0.1430
     10 C7          4.9668   -2.8418    0.0640 C.ar      1 <0>         0.1067
     11 N2          3.7554   -2.2667    0.2593 N.2       1 <0>        -0.5158
     12 C8          5.6986   -2.6229   -1.1062 C.ar      1 <0>        -0.0598
     13 C9          6.9142   -3.2228   -1.2715 C.ar      1 <0>        -0.1418
     14 C10         7.4416   -4.0561   -0.2856 C.ar      1 <0>         0.2042
     15 C11         6.7388   -4.2907    0.8833 C.ar      1 <0>        -0.1252
     16 N3          8.6891   -4.6592   -0.4795 N.pl3     1 <0>        -0.6144
     17 C12         9.4369   -4.4145   -1.7153 C.3       1 <0>         0.1525
     18 C13        10.3278   -3.2127   -1.5337 C.2       1 <0>        -0.1668
     19 C14        11.6296   -3.3119   -1.7636 C.2       1 <0>        -0.1041
     20 C15        12.5035   -2.1331   -1.5854 C.ar      1 <0>        -0.0598
     21 C16        11.9622   -0.9160   -1.1700 C.ar      1 <0>        -0.1127
     22 C17        12.7833    0.1805   -1.0056 C.ar      1 <0>        -0.1185
     23 C18        14.1405    0.0753   -1.2523 C.ar      1 <0>        -0.1187
     24 C19        14.6834   -1.1285   -1.6649 C.ar      1 <0>        -0.1194
     25 C20        13.8741   -2.2342   -1.8266 C.ar      1 <0>        -0.1086
     26 C21         9.2476   -5.5355    0.5532 C.3       1 <0>         0.1513
     27 C22         8.8045   -6.9538    0.3020 C.2       1 <0>        -0.1639
     28 C23         9.7056   -7.9196    0.1893 C.2       1 <0>        -0.1057
     29 C24         9.2710   -9.3108   -0.0571 C.ar      1 <0>        -0.0588
     30 C25         7.9134   -9.6098   -0.1774 C.ar      1 <0>        -0.1124
     31 C26         7.5143  -10.9104   -0.4073 C.ar      1 <0>        -0.1183
     32 C27         8.4569  -11.9170   -0.5182 C.ar      1 <0>        -0.1190
     33 C28         9.8044  -11.6272   -0.3994 C.ar      1 <0>        -0.1195
     34 C29        10.2170  -10.3296   -0.1761 C.ar      1 <0>        -0.1088
     35 C30         2.6808   -3.4454    3.5685 C.3       1 <0>         0.1330
     36 C31         1.7625   -4.6241    3.3721 C.ar      1 <0>        -0.1208
     37 C32         0.5135   -4.4408    2.8087 C.ar      1 <0>        -0.0976
     38 C33        -0.3288   -5.5219    2.6285 C.ar      1 <0>        -0.1238
     39 C34         0.0780   -6.7864    3.0112 C.ar      1 <0>        -0.1081
     40 C35         1.3273   -6.9698    3.5737 C.ar      1 <0>        -0.1249
     41 C36         2.1713   -5.8893    3.7500 C.ar      1 <0>        -0.0911
     42 H1          0.9122    1.8585    0.0033 H         1 <0>         0.1020
     43 H2         -0.9582    1.8330    0.0166 H         1 <0>         0.1084
     44 H3         -0.9258   -0.5567    0.0079 H         1 <0>         0.1211
     45 H4          1.3385   -1.4270   -0.8602 H         1 <0>         0.1066
     46 H5          2.1332   -0.0231   -0.1080 H         1 <0>         0.1009
     47 H6          5.3031   -1.9804   -1.8790 H         1 <0>         0.1384
     48 H7          7.4746   -3.0498   -2.1784 H         1 <0>         0.1350
     49 H8          7.1487   -4.9364    1.6458 H         1 <0>         0.1387
     50 H9         10.0469   -5.2869   -1.9497 H         1 <0>         0.0837
     51 H10         8.7388   -4.2292   -2.5317 H         1 <0>         0.0884
     52 H11         9.9058   -2.2706   -1.2163 H         1 <0>         0.1168
     53 H12        12.0517   -4.2540   -2.0810 H         1 <0>         0.1196
     54 H13        10.9027   -0.8324   -0.9778 H         1 <0>         0.1232
     55 H14        12.3656    1.1231   -0.6841 H         1 <0>         0.1231
     56 H15        14.7789    0.9366   -1.1225 H         1 <0>         0.1225
     57 H16        15.7436   -1.2039   -1.8565 H         1 <0>         0.1238
     58 H17        14.2999   -3.1747   -2.1437 H         1 <0>         0.1236
     59 H18        10.3360   -5.4842    0.5236 H         1 <0>         0.0839
     60 H19         8.8952   -5.2129    1.5329 H         1 <0>         0.0887
     61 H20         7.7529   -7.1834    0.2136 H         1 <0>         0.1160
     62 H21        10.7572   -7.6900    0.2777 H         1 <0>         0.1196
     63 H22         7.1766   -8.8250   -0.0903 H         1 <0>         0.1226
     64 H23         6.4639  -11.1432   -0.5006 H         1 <0>         0.1228
     65 H24         8.1393  -12.9335   -0.6978 H         1 <0>         0.1223
     66 H25        10.5353  -12.4176   -0.4863 H         1 <0>         0.1237
     67 H26        11.2695  -10.1038   -0.0887 H         1 <0>         0.1236
     68 H27         3.3215   -3.6240    4.4320 H         1 <0>         0.1118
     69 H28         2.0875   -2.5465    3.7361 H         1 <0>         0.1061
     70 H29         0.1957   -3.4529    2.5097 H         1 <0>         0.1336
     71 H30        -1.3049   -5.3786    2.1890 H         1 <0>         0.1253
     72 H31        -0.5804   -7.6310    2.8711 H         1 <0>         0.1233
     73 H32         1.6450   -7.9577    3.8730 H         1 <0>         0.1236
     74 H33         3.1488   -6.0332    4.1861 H         1 <0>         0.1279
@<TRIPOS>BOND
     1    1    2 2
     2    1   42 1
     3    1   43 1
     4    2    3 1
     5    2   44 1
     6    3    4 1
     7    3   45 1
     8    3   46 1
     9    4    5 1
    10    5   11 2
    11    5    6 1
    12    6    7 am
    13    6   35 1
    14    7    8 2
    15    7    9 1
    16    9   15 ar
    17    9   10 ar
    18   10   11 1
    19   10   12 ar
    20   12   13 ar
    21   12   47 1
    22   13   14 ar
    23   13   48 1
    24   14   15 ar
    25   14   16 1
    26   15   49 1
    27   16   17 1
    28   16   26 1
    29   17   18 1
    30   17   50 1
    31   17   51 1
    32   18   19 2
    33   18   52 1
    34   19   20 1
    35   19   53 1
    36   20   25 ar
    37   20   21 ar
    38   21   22 ar
    39   21   54 1
    40   22   23 ar
    41   22   55 1
    42   23   24 ar
    43   23   56 1
    44   24   25 ar
    45   24   57 1
    46   25   58 1
    47   26   27 1
    48   26   59 1
    49   26   60 1
    50   27   28 2
    51   27   61 1
    52   28   29 1
    53   28   62 1
    54   29   34 ar
    55   29   30 ar
    56   30   31 ar
    57   30   63 1
    58   31   32 ar
    59   31   64 1
    60   32   33 ar
    61   32   65 1
    62   33   34 ar
    63   33   66 1
    64   34   67 1
    65   35   36 1
    66   35   68 1
    67   35   69 1
    68   36   41 ar
    69   36   37 ar
    70   37   38 ar
    71   37   70 1
    72   38   39 ar
    73   38   71 1
    74   39   40 ar
    75   39   72 1
    76   40   41 ar
    77   40   73 1
    78   41   74 1
@<TRIPOS>MOLECULE
CHEMBL82334
   35    37     0     0     0
SMALL
USER_CHARGES

@<TRIPOS>ATOM
      1 C1          1.5188    1.4233   -0.1704 C.3       1 <0>        -0.1271
      2 C2          1.2739   -0.0634   -0.1450 C.ar      1 <0>        -0.0580
      3 C3         -0.0190   -0.5508   -0.1965 C.ar      1 <0>        -0.1055
      4 C4         -0.2464   -1.9131   -0.1729 C.ar      1 <0>        -0.1013
      5 C5          0.8242   -2.7927   -0.0978 C.ar      1 <0>         0.0416
      6 C6          2.1208   -2.3010   -0.0467 C.ar      1 <0>        -0.1160
      7 C7          2.3428   -0.9378   -0.0758 C.ar      1 <0>        -0.1056
      8 O1          0.6033   -4.1333   -0.0740 O.3       1 <0>        -0.2525
      9 C8          0.7059   -4.7748    1.1174 C.ar      1 <0>         0.2138
     10 C9          0.9437   -4.0615    2.2762 C.ar      1 <0>        -0.2077
     11 C10         1.0499   -4.7117    3.4991 C.ar      1 <0>         0.0187
     12 C11         0.9228   -6.0674    3.5901 C.ar      1 <0>        -0.1792
     13 C12         0.6814   -6.8243    2.4371 C.ar      1 <0>         0.2323
     14 C13         0.5658   -6.1699    1.1865 C.ar      1 <0>        -0.2178
     15 C14         0.3160   -6.9562    0.0368 C.ar      1 <0>         0.5723
     16 N1          0.1967   -8.2680    0.1855 N.ar      1 <0>        -0.5978
     17 C15         0.3068   -8.8432    1.3797 C.ar      1 <0>         0.6934
     18 N2          0.5500   -8.1593    2.4815 N.ar      1 <0>        -0.5861
     19 N3          0.1718  -10.2167    1.4686 N.pl3     1 <0>        -0.7882
     20 N4          0.1993   -6.3726   -1.2067 N.pl3     1 <0>        -0.7655
     21 H1          1.6237    1.7567   -1.2028 H         1 <0>         0.0818
     22 H2          0.6777    1.9381    0.2940 H         1 <0>         0.0751
     23 H3          2.4322    1.6505    0.3793 H         1 <0>         0.0747
     24 H4         -0.8520    0.1342   -0.2549 H         1 <0>         0.1396
     25 H5         -1.2565   -2.2933   -0.2124 H         1 <0>         0.1368
     26 H6          2.9557   -2.9834    0.0121 H         1 <0>         0.1342
     27 H7          3.3519   -0.5547   -0.0401 H         1 <0>         0.1385
     28 H8          1.0485   -2.9876    2.2309 H         1 <0>         0.1554
     29 H9          1.2364   -4.1347    4.3928 H         1 <0>         0.1591
     30 H10         1.0088   -6.5556    4.5496 H         1 <0>         0.1596
     31 H11         0.0005  -10.7399    0.6700 H         1 <0>         0.4448
     32 H12         0.2485  -10.6569    2.3296 H         1 <0>         0.4306
     33 H13         0.5960   -5.5033   -1.3736 H         1 <0>         0.4355
     34 H14        -0.2795   -6.8312   -1.9147 H         1 <0>         0.4288
     35 H15         0.6224   -8.6228    3.3305 H         1 <0>         0.4419
@<TRIPOS>BOND
     1    1    2 1
     2    1   21 1
     3    1   22 1
     4    1   23 1
     5    2    7 ar
     6    2    3 ar
     7    3    4 ar
     8    3   24 1
     9    4    5 ar
    10    4   25 1
    11    5    6 ar
    12    5    8 1
    13    6    7 ar
    14    6   26 1
    15    7   27 1
    16    8    9 1
    17    9   14 ar
    18    9   10 ar
    19   10   11 ar
    20   10   28 1
    21   11   12 ar
    22   11   29 1
    23   12   13 ar
    24   12   30 1
    25   13   18 ar
    26   13   14 ar
    27   14   15 ar
    28   15   16 ar
    29   15   20 1
    30   16   17 ar
    31   17   18 ar
    32   17   19 1
    33   18   35 1
    34   19   31 1
    35   19   32 1
    36   20   33 1
    37   20   34 1
@<TRIPOS>MOLECULE
CHEMBL82334__1
   34    36     0     0     0
SMALL
USER_CHARGES

@<TRIPOS>ATOM
      1 C1          1.5188    1.4233   -0.1704 C.3       1 <0>        -0.1194
      2 C2          1.2739   -0.0634   -0.1450 C.ar      1 <0>        -0.0775
      3 C3         -0.0190   -0.5508   -0.1965 C.ar      1 <0>        -0.1070
      4 C4         -0.2464   -1.9131   -0.1729 C.ar      1 <0>        -0.1111
      5 C5          0.8242   -2.7927   -0.0978 C.ar      1 <0>         0.0700
      6 C6          2.1208   -2.3010   -0.0467 C.ar      1 <0>        -0.1217
      7 C7          2.3428   -0.9378   -0.0758 C.ar      1 <0>        -0.1068
      8 O1          0.6033   -4.1333   -0.0740 O.3       1 <0>        -0.2624
      9 C8          0.7059   -4.7748    1.1174 C.ar      1 <0>         0.1895
     10 C9          0.9437   -4.0615    2.2762 C.ar      1 <0>        -0.2426
     11 C10         1.0499   -4.7117    3.4991 C.ar      1 <0>        -0.0251
     12 C11         0.9228   -6.0674    3.5901 C.ar      1 <0>        -0.1627
     13 C12         0.6814   -6.8243    2.4371 C.ar      1 <0>         0.2642
     14 C13         0.5658   -6.1699    1.1865 C.ar      1 <0>        -0.2529
     15 C14         0.3160   -6.9562    0.0368 C.ar      1 <0>         0.5253
     16 N1          0.1967   -8.2680    0.1855 N.ar      1 <0>        -0.6373
     17 C15         0.3068   -8.8432    1.3797 C.ar      1 <0>         0.6174
     18 N2          0.5500   -8.1593    2.4815 N.ar      1 <0>        -0.6108
     19 N3          0.1718  -10.2167    1.4686 N.pl3     1 <0>        -0.8175
     20 N4          0.1993   -6.3726   -1.2067 N.pl3     1 <0>        -0.8170
     21 H1          1.6237    1.7567   -1.2028 H         1 <0>         0.0752
     22 H2          0.6777    1.9381    0.2940 H         1 <0>         0.0701
     23 H3          2.4322    1.6505    0.3793 H         1 <0>         0.0700
     24 H4         -0.8520    0.1342   -0.2549 H         1 <0>         0.1326
     25 H5         -1.2565   -2.2933   -0.2124 H         1 <0>         0.1332
     26 H6          2.9557   -2.9834    0.0121 H         1 <0>         0.1316
     27 H7          3.3519   -0.5547   -0.0401 H         1 <0>         0.1318
     28 H8          1.0485   -2.9876    2.2309 H         1 <0>         0.1317
     29 H9          1.2364   -4.1347    4.3928 H         1 <0>         0.1333
     30 H10         1.0088   -6.5556    4.5496 H         1 <0>         0.1388
     31 H11         0.0005  -10.7399    0.6700 H         1 <0>         0.4133
     32 H12         0.2485  -10.6569    2.3296 H         1 <0>         0.4161
     33 H13         0.5960   -5.5033   -1.3736 H         1 <0>         0.4192
     34 H14        -0.2795   -6.8312   -1.9147 H         1 <0>         0.4086
@<TRIPOS>BOND
     1    1    2 1
     2    1   21 1
     3    1   22 1
     4    1   23 1
     5    2    7 ar
     6    2    3 ar
     7    3    4 ar
     8    3   24 1
     9    4    5 ar
    10    4   25 1
    11    5    6 ar
    12    5    8 1
    13    6    7 ar
    14    6   26 1
    15    7   27 1
    16    8    9 1
    17    9   14 ar
    18    9   10 ar
    19   10   11 ar
    20   10   28 1
    21   11   12 ar
    22   11   29 1
    23   12   13 ar
    24   12   30 1
    25   13   18 ar
    26   13   14 ar
    27   14   15 ar
    28   15   16 ar
    29   15   20 1
    30   16   17 ar
    31   17   18 ar
    32   17   19 1
    33   19   31 1
    34   19   32 1
    35   20   33 1
    36   20   34 1
@<TRIPOS>MOLECULE
CHEMBL597961
   52    55     0     0     0
SMALL
USER_CHARGES

@<TRIPOS>ATOM
      1 C1         -0.0167    1.3781    0.0096 C.ar      1 <0>        -0.1062
      2 C2          1.1709    2.0855    0.0021 C.ar      1 <0>        -0.1226
      3 C3          2.3773    1.4107   -0.0130 C.ar      1 <0>        -0.0960
      4 C4          2.3960    0.0285   -0.0201 C.ar      1 <0>        -0.1026
      5 C5          1.2084   -0.6789   -0.0117 C.ar      1 <0>        -0.0948
      6 C6          0.0021   -0.0041    0.0020 C.ar      1 <0>        -0.1215
      7 C7          3.7112   -0.7071   -0.0376 C.3       1 <0>         0.1037
      8 O1          4.1410   -0.9464    1.3041 O.3       1 <0>        -0.3081
      9 C8          5.3186   -1.6049    1.4665 C.ar      1 <0>         0.1328
     10 C9          6.0483   -2.0075    0.3574 C.ar      1 <0>        -0.2072
     11 C10         7.2453   -2.6763    0.5252 C.ar      1 <0>        -0.0736
     12 C11         7.7160   -2.9451    1.7972 C.ar      1 <0>        -0.1297
     13 C12         6.9904   -2.5454    2.9042 C.ar      1 <0>        -0.0770
     14 C13         5.7959   -1.8708    2.7418 C.ar      1 <0>        -0.1500
     15 C14         9.0219   -3.6754    1.9773 C.3       1 <0>        -0.0766
     16 C15        10.1673   -2.6632    2.0441 C.3       1 <0>        -0.1142
     17 C16        11.4931   -3.4046    2.2270 C.3       1 <0>        -0.0646
     18 C17        12.6213   -2.4076    2.2927 C.2       1 <0>        -0.0848
     19 C18        13.3922   -2.0030    1.2709 C.2       1 <0>         0.0485
     20 N1         14.3120   -1.0872    1.7171 N.pl3     1 <0>        -0.5368
     21 H1         14.9779   -0.6518    1.1622 H         1 <0>         0.4378
     22 C19        14.1511   -0.8782    3.0592 C.ar      1 <0>         0.3341
     23 C20        13.0826   -1.6902    3.4808 C.ar      1 <0>        -0.2476
     24 C21        12.7030   -1.6602    4.8317 C.ar      1 <0>         0.5778
     25 N2         13.3690   -0.8609    5.6589 N.ar      1 <0>        -0.5889
     26 C22        14.3702   -0.1072    5.2220 C.ar      1 <0>         0.6952
     27 N3         14.7644   -0.1114    3.9598 N.ar      1 <0>        -0.5721
     28 N4         15.0325    0.7088    6.1240 N.pl3     1 <0>        -0.7922
     29 N5         11.6601   -2.4436    5.2913 N.pl3     1 <0>        -0.7758
     30 H2         -0.9591    1.9053    0.0259 H         1 <0>         0.1267
     31 H3          1.1563    3.1654    0.0076 H         1 <0>         0.1267
     32 H4          3.3051    1.9634   -0.0196 H         1 <0>         0.1229
     33 H5          1.2231   -1.7588   -0.0176 H         1 <0>         0.1244
     34 H6         -0.9258   -0.5567    0.0082 H         1 <0>         0.1276
     35 H7          3.5884   -1.6586   -0.5549 H         1 <0>         0.0727
     36 H8          4.4573   -0.1052   -0.5563 H         1 <0>         0.0714
     37 H9          5.6808   -1.7984   -0.6363 H         1 <0>         0.1287
     38 H10         7.8138   -2.9899   -0.3379 H         1 <0>         0.1245
     39 H11         7.3600   -2.7569    3.8967 H         1 <0>         0.1260
     40 H12         5.2316   -1.5549    3.6068 H         1 <0>         0.1310
     41 H13         8.9916   -4.2513    2.9023 H         1 <0>         0.0732
     42 H14         9.1808   -4.3488    1.1351 H         1 <0>         0.0775
     43 H15        10.1976   -2.0873    1.1191 H         1 <0>         0.0742
     44 H16        10.0084   -1.9898    2.8863 H         1 <0>         0.0632
     45 H17        11.4628   -3.9805    3.1519 H         1 <0>         0.0760
     46 H18        11.6520   -4.0780    1.3847 H         1 <0>         0.0968
     47 H19        13.3021   -2.3464    0.2510 H         1 <0>         0.2032
     48 H20        14.7621    0.7220    7.0555 H         1 <0>         0.4463
     49 H21        15.7669    1.2672    5.8243 H         1 <0>         0.4290
     50 H22        11.1815   -3.0226    4.6776 H         1 <0>         0.4294
     51 H23        11.4072   -2.4140    6.2272 H         1 <0>         0.4280
     52 H24        15.5008    0.4570    3.6848 H         1 <0>         0.4336
@<TRIPOS>BOND
     1    1    6 ar
     2    1    2 ar
     3    1   30 1
     4    2    3 ar
     5    2   31 1
     6    3    4 ar
     7    3   32 1
     8    4    5 ar
     9    4    7 1
    10    5    6 ar
    11    5   33 1
    12    6   34 1
    13    7    8 1
    14    7   35 1
    15    7   36 1
    16    8    9 1
    17    9   14 ar
    18    9   10 ar
    19   10   11 ar
    20   10   37 1
    21   11   12 ar
    22   11   38 1
    23   12   13 ar
    24   12   15 1
    25   13   14 ar
    26   13   39 1
    27   14   40 1
    28   15   16 1
    29   15   41 1
    30   15   42 1
    31   16   17 1
    32   16   43 1
    33   16   44 1
    34   17   18 1
    35   17   45 1
    36   17   46 1
    37   18   23 1
    38   18   19 2
    39   19   20 1
    40   19   47 1
    41   20   21 1
    42   20   22 1
    43   22   27 ar
    44   22   23 ar
    45   23   24 ar
    46   24   25 ar
    47   24   29 1
    48   25   26 ar
    49   26   27 ar
    50   26   28 1
    51   27   52 1
    52   28   48 1
    53   28   49 1
    54   29   50 1
    55   29   51 1
@<TRIPOS>MOLECULE
CHEMBL87013
   67    70     0     0     0
SMALL
USER_CHARGES

@<TRIPOS>ATOM
      1 C1         -5.9563   -4.6001   -7.1999 C.3       1 <0>        -0.1546
      2 C2         -5.8006   -3.8015   -5.9041 C.3       1 <0>        -0.1043
      3 C3         -5.9807   -4.7202   -4.7231 C.ar      1 <0>         0.2660
      4 C4         -4.9631   -5.5944   -4.3475 C.ar      1 <0>        -0.1903
      5 C5         -5.1802   -6.4314   -3.2374 C.ar      1 <0>         0.5430
      6 N1         -6.3397   -6.3562   -2.5943 N.ar      1 <0>        -0.5698
      7 C6         -7.2787   -5.5089   -2.9881 C.ar      1 <0>         0.6650
      8 N2         -7.1053   -4.7031   -4.0261 N.ar      1 <0>        -0.5675
      9 N3         -8.4734   -5.4600   -2.2924 N.pl3     1 <0>        -0.7908
     10 N4         -4.2023   -7.3180   -2.8230 N.pl3     1 <0>        -0.7776
     11 C7         -3.6851   -5.6420   -5.0981 C.ar      1 <0>        -0.0546
     12 C8         -3.3674   -6.7625   -5.8660 C.ar      1 <0>        -0.0857
     13 C9         -2.1783   -6.8093   -6.5663 C.ar      1 <0>        -0.0953
     14 C10        -1.2954   -5.7476   -6.5115 C.ar      1 <0>         0.0003
     15 C11        -1.6026   -4.6202   -5.7460 C.ar      1 <0>         0.0393
     16 C12        -2.8038   -4.5667   -5.0420 C.ar      1 <0>        -0.0911
     17 N5         -0.7256   -3.5661   -5.6912 N.2       1 <0>        -0.2185
     18 N6         -0.4267   -3.0342   -4.5547 N.2       1 <0>         0.1247
     19 N7         -0.8739   -3.6248   -3.3656 N.pl3     1 <0>        -0.5640
     20 C13        -0.7910   -5.0772   -3.1928 C.3       1 <0>         0.1063
     21 C14         0.5552   -5.4398   -2.5624 C.3       1 <0>         0.0499
     22 O1          0.6621   -4.8212   -1.2787 O.3       1 <0>        -0.3443
     23 C15         1.7962   -5.0418   -0.5860 C.2       1 <0>         0.5107
     24 O2          2.6705   -5.7402   -1.0587 O.2       1 <0>        -0.4972
     25 C16         1.9766   -4.4344    0.7485 C.ar      1 <0>        -0.1297
     26 C17         0.9713   -3.6358    1.2973 C.ar      1 <0>        -0.0637
     27 C18         1.1464   -3.0717    2.5439 C.ar      1 <0>        -0.1331
     28 C19         2.3149   -3.2958    3.2502 C.ar      1 <0>        -0.0788
     29 C20         3.3154   -4.0857    2.7121 C.ar      1 <0>        -0.1273
     30 C21         3.1509   -4.6611    1.4692 C.ar      1 <0>        -0.0531
     31 C22        -1.4244   -2.7900   -2.2949 C.3       1 <0>         0.1810
     32 C23        -2.8937   -2.5622   -2.5407 C.ar      1 <0>        -0.1083
     33 C24        -3.3045   -1.5386   -3.3740 C.ar      1 <0>        -0.0965
     34 C25        -4.6522   -1.3296   -3.5995 C.ar      1 <0>        -0.1114
     35 C26        -5.5891   -2.1445   -2.9921 C.ar      1 <0>        -0.1270
     36 C27        -5.1783   -3.1687   -2.1595 C.ar      1 <0>        -0.1391
     37 C28        -3.8304   -3.3804   -1.9374 C.ar      1 <0>        -0.0987
     38 Cl1         0.1976   -5.8152   -7.3947 Cl        1 <0>        -0.0174
     39 H1         -5.9140   -3.9218   -8.0520 H         1 <0>         0.0890
     40 H2         -5.1503   -5.3299   -7.2760 H         1 <0>         0.0730
     41 H3         -6.9157   -5.1176   -7.1947 H         1 <0>         0.0649
     42 H4         -4.8066   -3.3557   -5.8694 H         1 <0>         0.1184
     43 H5         -6.5534   -3.0140   -5.8700 H         1 <0>         0.1030
     44 H6         -8.6139   -6.0408   -1.5284 H         1 <0>         0.4459
     45 H7         -9.1707   -4.8448   -2.5686 H         1 <0>         0.4307
     46 H8         -3.3879   -7.4184   -3.3404 H         1 <0>         0.4291
     47 H9         -4.3309   -7.8392   -2.0152 H         1 <0>         0.4295
     48 H10        -4.0531   -7.5956   -5.9126 H         1 <0>         0.1437
     49 H11        -1.9371   -7.6794   -7.1590 H         1 <0>         0.1552
     50 H12        -3.0481   -3.6958   -4.4519 H         1 <0>         0.1535
     51 H13        -1.5988   -5.4125   -2.5423 H         1 <0>         0.0878
     52 H14        -0.8804   -5.5644   -4.1637 H         1 <0>         0.0968
     53 H15         0.6246   -6.5219   -2.4512 H         1 <0>         0.0806
     54 H16         1.3632   -5.0878   -3.2037 H         1 <0>         0.0758
     55 H17         0.0589   -3.4599    0.7469 H         1 <0>         0.1328
     56 H18         0.3698   -2.4535    2.9694 H         1 <0>         0.1326
     57 H19         2.4469   -2.8517    4.2258 H         1 <0>         0.1330
     58 H20         4.2253   -4.2560    3.2684 H         1 <0>         0.1367
     59 H21         3.9306   -5.2814    1.0524 H         1 <0>         0.1387
     60 H22        -1.2899   -3.2923   -1.3369 H         1 <0>         0.1029
     61 H23        -0.9059   -1.8314   -2.2785 H         1 <0>         0.0991
     62 H24        -2.5725   -0.9019   -3.8486 H         1 <0>         0.1321
     63 H25        -4.9732   -0.5295   -4.2500 H         1 <0>         0.1311
     64 H26        -6.6421   -1.9808   -3.1677 H         1 <0>         0.1170
     65 H27        -5.9103   -3.8052   -1.6846 H         1 <0>         0.1079
     66 H28        -3.5093   -4.1829   -1.2899 H         1 <0>         0.1219
     67 H29        -7.8155   -4.0935   -4.2809 H         1 <0>         0.4411
@<TRIPOS>BOND
     1    1    2 1
     2    1   39 1
     3    1   40 1
     4    1   41 1
     5    2    3 1
     6    2   42 1
     7    2   43 1
     8    3    8 ar
     9    3    4 ar
    10    4    5 ar
    11    4   11 1
    12    5    6 ar
    13    5   10 1
    14    6    7 ar
    15    7    8 ar
    16    7    9 1
    17    8   67 1
    18    9   44 1
    19    9   45 1
    20   10   46 1
    21   10   47 1
    22   11   16 ar
    23   11   12 ar
    24   12   13 ar
    25   12   48 1
    26   13   14 ar
    27   13   49 1
    28   14   15 ar
    29   14   38 1
    30   15   16 ar
    31   15   17 1
    32   16   50 1
    33   17   18 2
    34   18   19 1
    35   19   20 1
    36   19   31 1
    37   20   21 1
    38   20   51 1
    39   20   52 1
    40   21   22 1
    41   21   53 1
    42   21   54 1
    43   22   23 1
    44   23   24 2
    45   23   25 1
    46   25   30 ar
    47   25   26 ar
    48   26   27 ar
    49   26   55 1
    50   27   28 ar
    51   27   56 1
    52   28   29 ar
    53   28   57 1
    54   29   30 ar
    55   29   58 1
    56   30   59 1
    57   31   32 1
    58   31   60 1
    59   31   61 1
    60   32   37 ar
    61   32   33 ar
    62   33   34 ar
    63   33   62 1
    64   34   35 ar
    65   34   63 1
    66   35   36 ar
    67   35   64 1
    68   36   37 ar
    69   36   65 1
    70   37   66 1
@<TRIPOS>MOLECULE
CHEMBL87013__1
   66    69     0     0     0
SMALL
USER_CHARGES

@<TRIPOS>ATOM
      1 C1         -6.8500   -1.1895    6.2337 C.3       1 <0>        -0.1462
      2 C2         -8.0259   -0.2745    6.5814 C.3       1 <0>        -0.0786
      3 C3         -8.7245    0.1488    5.3150 C.ar      1 <0>         0.2769
      4 C4         -8.3263    1.3010    4.6407 C.ar      1 <0>        -0.2824
      5 C5         -9.0102    1.6531    3.4624 C.ar      1 <0>         0.5014
      6 N1        -10.0031    0.8782    3.0412 N.ar      1 <0>        -0.6261
      7 C6        -10.3469   -0.2086    3.7158 C.ar      1 <0>         0.6119
      8 N2         -9.7207   -0.5719    4.8261 N.ar      1 <0>        -0.5960
      9 N3        -11.3866   -0.9903    3.2450 N.pl3     1 <0>        -0.8217
     10 N4         -8.6546    2.7876    2.7550 N.pl3     1 <0>        -0.8353
     11 C7         -7.2112    2.1346    5.1513 C.ar      1 <0>        -0.0061
     12 C8         -7.4798    3.2515    5.9427 C.ar      1 <0>        -0.0924
     13 C9         -6.4435    4.0293    6.4200 C.ar      1 <0>        -0.1019
     14 C10        -5.1342    3.7069    6.1174 C.ar      1 <0>        -0.0111
     15 C11        -4.8528    2.5909    5.3258 C.ar      1 <0>         0.0426
     16 C12        -5.8954    1.8004    4.8466 C.ar      1 <0>        -0.1157
     17 N5         -3.5527    2.2711    5.0249 N.2       1 <0>        -0.2524
     18 N6         -3.2858    1.5853    3.9654 N.2       1 <0>         0.1119
     19 N7         -4.1748    1.5946    2.8826 N.pl3     1 <0>        -0.5355
     20 C13        -5.0675    2.7379    2.6776 C.3       1 <0>         0.0830
     21 C14        -4.4675    3.6709    1.6239 C.3       1 <0>         0.0549
     22 O1         -4.4007    2.9914    0.3686 O.3       1 <0>        -0.3434
     23 C15        -3.8015    3.6417   -0.6478 C.2       1 <0>         0.5091
     24 O2         -3.2664    4.7143   -0.4510 O.2       1 <0>        -0.4994
     25 C16        -3.7954    3.0504   -2.0015 C.ar      1 <0>        -0.1273
     26 C17        -4.4145    1.8204   -2.2323 C.ar      1 <0>        -0.0621
     27 C18        -4.4050    1.2739   -3.4989 C.ar      1 <0>        -0.1322
     28 C19        -3.7838    1.9419   -4.5393 C.ar      1 <0>        -0.0816
     29 C20        -3.1679    3.1609   -4.3175 C.ar      1 <0>        -0.1298
     30 C21        -3.1753    3.7217   -3.0572 C.ar      1 <0>        -0.0546
     31 C22        -4.2116    0.4609    1.9554 C.3       1 <0>         0.1780
     32 C23        -5.2478   -0.5316    2.4163 C.ar      1 <0>        -0.1218
     33 C24        -4.9134   -1.4985    3.3459 C.ar      1 <0>        -0.1043
     34 C25        -5.8638   -2.4089    3.7687 C.ar      1 <0>        -0.1124
     35 C26        -7.1488   -2.3520    3.2622 C.ar      1 <0>        -0.1007
     36 C27        -7.4834   -1.3846    2.3333 C.ar      1 <0>        -0.1116
     37 C28        -6.5341   -0.4715    1.9137 C.ar      1 <0>        -0.0980
     38 Cl1        -3.8375    4.6906    6.7212 Cl        1 <0>        -0.0409
     39 H1         -6.3446   -1.4957    7.1496 H         1 <0>         0.0615
     40 H2         -7.2185   -2.0715    5.7098 H         1 <0>         0.0663
     41 H3         -6.1491   -0.6533    5.5939 H         1 <0>         0.0570
     42 H4         -8.7267   -0.8107    7.2212 H         1 <0>         0.0861
     43 H5         -7.6574    0.6075    7.1053 H         1 <0>         0.0808
     44 H6        -11.8522   -0.7396    2.4318 H         1 <0>         0.4132
     45 H7        -11.6500   -1.7892    3.7280 H         1 <0>         0.4153
     46 H8         -7.9914    3.3964    3.1162 H         1 <0>         0.4080
     47 H9         -9.0686    2.9743    1.8979 H         1 <0>         0.4080
     48 H10        -8.5010    3.5088    6.1824 H         1 <0>         0.1363
     49 H11        -6.6571    4.8931    7.0320 H         1 <0>         0.1439
     50 H12        -5.6832    0.9341    4.2376 H         1 <0>         0.1541
     51 H13        -6.0402    2.3829    2.3369 H         1 <0>         0.0933
     52 H14        -5.1866    3.2788    3.6163 H         1 <0>         0.1132
     53 H15        -5.0941    4.5572    1.5243 H         1 <0>         0.0803
     54 H16        -3.4644    3.9676    1.9303 H         1 <0>         0.0772
     55 H17        -4.8995    1.2978   -1.4211 H         1 <0>         0.1356
     56 H18        -4.8832    0.3224   -3.6788 H         1 <0>         0.1327
     57 H19        -3.7792    1.5096   -5.5290 H         1 <0>         0.1311
     58 H20        -2.6842    3.6766   -5.1338 H         1 <0>         0.1344
     59 H21        -2.6985    4.6756   -2.8864 H         1 <0>         0.1377
     60 H22        -4.4674    0.8161    0.9572 H         1 <0>         0.1009
     61 H23        -3.2337   -0.0199    1.9304 H         1 <0>         0.0952
     62 H24        -3.9094   -1.5429    3.7416 H         1 <0>         0.1215
     63 H25        -5.6023   -3.1647    4.4944 H         1 <0>         0.1218
     64 H26        -7.8911   -3.0637    3.5920 H         1 <0>         0.1185
     65 H27        -8.4872   -1.3404    1.9374 H         1 <0>         0.1126
     66 H28        -6.7965    0.2867    1.1908 H         1 <0>         0.1151
@<TRIPOS>BOND
     1    1    2 1
     2    1   39 1
     3    1   40 1
     4    1   41 1
     5    2    3 1
     6    2   42 1
     7    2   43 1
     8    3    8 ar
     9    3    4 ar
    10    4    5 ar
    11    4   11 1
    12    5    6 ar
    13    5   10 1
    14    6    7 ar
    15    7    8 ar
    16    7    9 1
    17    9   44 1
    18    9   45 1
    19   10   46 1
    20   10   47 1
    21   11   16 ar
    22   11   12 ar
    23   12   13 ar
    24   12   48 1
    25   13   14 ar
    26   13   49 1
    27   14   15 ar
    28   14   38 1
    29   15   16 ar
    30   15   17 1
    31   16   50 1
    32   17   18 2
    33   18   19 1
    34   19   20 1
    35   19   31 1
    36   20   21 1
    37   20   51 1
    38   20   52 1
    39   21   22 1
    40   21   53 1
    41   21   54 1
    42   22   23 1
    43   23   24 2
    44   23   25 1
    45   25   30 ar
    46   25   26 ar
    47   26   27 ar
    48   26   55 1
    49   27   28 ar
    50   27   56 1
    51   28   29 ar
    52   28   57 1
    53   29   30 ar
    54   29   58 1
    55   30   59 1
    56   31   32 1
    57   31   60 1
    58   31   61 1
    59   32   37 ar
    60   32   33 ar
    61   33   34 ar
    62   33   62 1
    63   34   35 ar
    64   34   63 1
    65   35   36 ar
    66   35   64 1
    67   36   37 ar
    68   36   65 1
    69   37   66 1
@<TRIPOS>MOLECULE
CHEMBL87013__2
   67    70     0     0     0
SMALL
USER_CHARGES

@<TRIPOS>ATOM
      1 C1          0.8937   -1.6696   -0.2830 C.3       1 <0>        -0.1537
      2 C2          0.1058   -0.3831   -0.0280 C.3       1 <0>        -0.1056
      3 C3         -1.3705   -0.6716   -0.1204 C.ar      1 <0>         0.2540
      4 C4         -2.0170   -0.6540   -1.3543 C.ar      1 <0>        -0.1889
      5 C5         -3.3963   -0.9305   -1.3874 C.ar      1 <0>         0.5405
      6 N1         -4.0249   -1.1959   -0.2480 N.ar      1 <0>        -0.5742
      7 C6         -3.3681   -1.2013    0.9023 C.ar      1 <0>         0.6662
      8 N2         -2.0684   -0.9503    0.9687 N.ar      1 <0>        -0.5689
      9 N3         -4.0581   -1.4823    2.0680 N.pl3     1 <0>        -0.7907
     10 N4         -4.0861   -0.9254   -2.5867 N.pl3     1 <0>        -0.7719
     11 C7         -1.2714   -0.3515   -2.5999 C.ar      1 <0>        -0.0550
     12 C8         -0.7741    0.9329   -2.8218 C.ar      1 <0>        -0.0876
     13 C9         -0.0791    1.2173   -3.9805 C.ar      1 <0>        -0.0921
     14 C10         0.1287    0.2326   -4.9276 C.ar      1 <0>         0.0087
     15 C11        -0.3645   -1.0572   -4.7165 C.ar      1 <0>         0.1294
     16 C12        -1.0618   -1.3497   -3.5462 C.ar      1 <0>        -0.1129
     17 N5         -0.1585   -2.0349   -5.6572 N.2       1 <0>        -0.3311
     18 N6         -0.6147   -3.2254   -5.4606 N.2       1 <0>         0.0546
     19 N7         -0.4044   -4.2236   -6.4209 N.pl3     1 <0>        -0.4589
     20 C13        -0.9224   -5.5756   -6.1977 C.3       1 <0>         0.1479
     21 C14        -2.2852   -5.7185   -6.8783 C.3       1 <0>         0.0460
     22 O1         -2.1251   -5.6040   -8.2937 O.3       1 <0>        -0.3468
     23 C15        -3.2381   -5.7079   -9.0454 C.2       1 <0>         0.5128
     24 O2         -4.3150   -5.8907   -8.5141 O.2       1 <0>        -0.5021
     25 C16        -3.1489   -5.5995  -10.5160 C.ar      1 <0>        -0.1323
     26 C17        -1.9119   -5.3950  -11.1304 C.ar      1 <0>        -0.0624
     27 C18        -1.8358   -5.2947  -12.5041 C.ar      1 <0>        -0.1318
     28 C19        -2.9817   -5.3961  -13.2729 C.ar      1 <0>        -0.0785
     29 C20        -4.2109   -5.5983  -12.6705 C.ar      1 <0>        -0.1292
     30 C21        -4.3006   -5.7067  -11.2982 C.ar      1 <0>        -0.0541
     31 C22         0.3334   -3.9153   -7.6484 C.3       1 <0>         0.1356
     32 C23         1.7833   -4.2852   -7.4694 C.ar      1 <0>        -0.1109
     33 C24         2.6766   -3.3571   -6.9679 C.ar      1 <0>        -0.0976
     34 C25         4.0065   -3.6965   -6.8037 C.ar      1 <0>        -0.1226
     35 C26         4.4431   -4.9641   -7.1405 C.ar      1 <0>        -0.1117
     36 C27         3.5496   -5.8925   -7.6412 C.ar      1 <0>        -0.1206
     37 C28         2.2188   -5.5545   -7.8014 C.ar      1 <0>        -0.1062
     38 Cl1         1.0031    0.5991   -6.3817 Cl        1 <0>        -0.0270
     39 H1          1.9580   -1.4767   -0.1478 H         1 <0>         0.0885
     40 H2          0.5717   -2.4383    0.4195 H         1 <0>         0.0623
     41 H3          0.7129   -2.0104   -1.3025 H         1 <0>         0.0714
     42 H4          0.3404   -0.0045    0.9669 H         1 <0>         0.1050
     43 H5          0.3775    0.3634   -0.7743 H         1 <0>         0.1236
     44 H6         -5.0088   -1.6717    2.0352 H         1 <0>         0.4455
     45 H7         -3.5910   -1.4901    2.9181 H         1 <0>         0.4305
     46 H8         -3.6190   -0.7302   -3.4140 H         1 <0>         0.4320
     47 H9         -5.0369   -1.1171   -2.6001 H         1 <0>         0.4289
     48 H10        -0.9336    1.7068   -2.0856 H         1 <0>         0.1403
     49 H11         0.3034    2.2134   -4.1474 H         1 <0>         0.1521
     50 H12        -1.4416   -2.3463   -3.3762 H         1 <0>         0.1417
     51 H13        -0.2287   -6.3043   -6.6170 H         1 <0>         0.1044
     52 H14        -1.0307   -5.7511   -5.1273 H         1 <0>         0.1112
     53 H15        -2.7107   -6.6930   -6.6385 H         1 <0>         0.0876
     54 H16        -2.9527   -4.9333   -6.5234 H         1 <0>         0.0735
     55 H17        -1.0167   -5.3153  -10.5315 H         1 <0>         0.1353
     56 H18        -0.8796   -5.1362  -12.9806 H         1 <0>         0.1342
     57 H19        -2.9165   -5.3168  -14.3480 H         1 <0>         0.1330
     58 H20        -5.1016   -5.6759  -13.2764 H         1 <0>         0.1358
     59 H21        -5.2599   -5.8693  -10.8297 H         1 <0>         0.1375
     60 H22        -0.0870   -4.4842   -8.4777 H         1 <0>         0.0992
     61 H23         0.2541   -2.8493   -7.8620 H         1 <0>         0.0989
     62 H24         2.3355   -2.3668   -6.7047 H         1 <0>         0.1249
     63 H25         4.7046   -2.9711   -6.4125 H         1 <0>         0.1213
     64 H26         5.4823   -5.2290   -7.0129 H         1 <0>         0.1228
     65 H27         3.8907   -6.8827   -7.9047 H         1 <0>         0.1240
     66 H28         1.5200   -6.2810   -8.1890 H         1 <0>         0.1221
     67 H29        -1.6224   -0.9678    1.8299 H         1 <0>         0.4419
@<TRIPOS>BOND
     1    1    2 1
     2    1   39 1
     3    1   40 1
     4    1   41 1
     5    2    3 1
     6    2   42 1
     7    2   43 1
     8    3    8 ar
     9    3    4 ar
    10    4    5 ar
    11    4   11 1
    12    5    6 ar
    13    5   10 1
    14    6    7 ar
    15    7    8 ar
    16    7    9 1
    17    8   67 1
    18    9   44 1
    19    9   45 1
    20   10   46 1
    21   10   47 1
    22   11   16 ar
    23   11   12 ar
    24   12   13 ar
    25   12   48 1
    26   13   14 ar
    27   13   49 1
    28   14   15 ar
    29   14   38 1
    30   15   16 ar
    31   15   17 1
    32   16   50 1
    33   17   18 2
    34   18   19 1
    35   19   20 1
    36   19   31 1
    37   20   21 1
    38   20   51 1
    39   20   52 1
    40   21   22 1
    41   21   53 1
    42   21   54 1
    43   22   23 1
    44   23   24 2
    45   23   25 1
    46   25   30 ar
    47   25   26 ar
    48   26   27 ar
    49   26   55 1
    50   27   28 ar
    51   27   56 1
    52   28   29 ar
    53   28   57 1
    54   29   30 ar
    55   29   58 1
    56   30   59 1
    57   31   32 1
    58   31   60 1
    59   31   61 1
    60   32   37 ar
    61   32   33 ar
    62   33   34 ar
    63   33   62 1
    64   34   35 ar
    65   34   63 1
    66   35   36 ar
    67   35   64 1
    68   36   37 ar
    69   36   65 1
    70   37   66 1
@<TRIPOS>MOLECULE
CHEMBL87013__3
   66    69     0     0     0
SMALL
USER_CHARGES

@<TRIPOS>ATOM
      1 C1         -0.0187    1.5258    0.0104 C.3       1 <0>        -0.1411
      2 C2          0.0021   -0.0041    0.0020 C.3       1 <0>        -0.0811
      3 C3         -1.4117   -0.5257    0.0127 C.ar      1 <0>         0.2694
      4 C4         -2.0643   -0.7709    1.2189 C.ar      1 <0>        -0.2862
      5 C5         -3.3841   -1.2571    1.1753 C.ar      1 <0>         0.4989
      6 N1         -3.9533   -1.4623   -0.0069 N.ar      1 <0>        -0.6303
      7 C6         -3.2933   -1.2146   -1.1284 C.ar      1 <0>         0.6111
      8 N2         -2.0514   -0.7516   -1.1233 N.ar      1 <0>        -0.6024
      9 N3         -3.9205   -1.4410   -2.3405 N.pl3     1 <0>        -0.8189
     10 N4         -4.0768   -1.5174    2.3442 N.pl3     1 <0>        -0.8300
     11 C7         -1.3858   -0.5265    2.5146 C.ar      1 <0>         0.0009
     12 C8         -0.2665   -1.2795    2.8699 C.ar      1 <0>        -0.0940
     13 C9          0.3675   -1.0537    4.0756 C.ar      1 <0>        -0.0982
     14 C10        -0.1018   -0.0811    4.9379 C.ar      1 <0>        -0.0044
     15 C11        -1.2217    0.6793    4.5931 C.ar      1 <0>         0.1144
     16 C12        -1.8612    0.4582    3.3751 C.ar      1 <0>        -0.1176
     17 N5         -1.6880    1.6447    5.4496 N.2       1 <0>        -0.3180
     18 N6         -2.7223    2.3459    5.1295 N.2       1 <0>         0.0502
     19 N7         -3.1984    3.3316    6.0039 N.pl3     1 <0>        -0.4750
     20 C13        -4.3731    4.1279    5.6404 C.3       1 <0>         0.1524
     21 C14        -5.6258    3.4975    6.2520 C.3       1 <0>         0.0454
     22 O1         -5.5474    3.5682    7.6771 O.3       1 <0>        -0.3454
     23 C15        -6.5795    3.0529    8.3728 C.2       1 <0>         0.5100
     24 O2         -7.5203    2.5571    7.7857 O.2       1 <0>        -0.5019
     25 C16        -6.5672    3.0908    9.8495 C.ar      1 <0>        -0.1283
     26 C17        -5.4900    3.6651   10.5273 C.ar      1 <0>        -0.0618
     27 C18        -5.4849    3.6971   11.9064 C.ar      1 <0>        -0.1323
     28 C19        -6.5441    3.1618   12.6179 C.ar      1 <0>        -0.0818
     29 C20        -7.6145    2.5907   11.9525 C.ar      1 <0>        -0.1305
     30 C21        -7.6353    2.5576   10.5736 C.ar      1 <0>        -0.0550
     31 C22        -2.5215    3.5659    7.2819 C.3       1 <0>         0.1380
     32 C23        -1.5311    4.6912    7.1269 C.ar      1 <0>        -0.1066
     33 C24        -0.2304    4.4195    6.7457 C.ar      1 <0>        -0.0962
     34 C25         0.6780    5.4517    6.6035 C.ar      1 <0>        -0.1222
     35 C26         0.2856    6.7556    6.8420 C.ar      1 <0>        -0.1155
     36 C27        -1.0153    7.0273    7.2224 C.ar      1 <0>        -0.1232
     37 C28        -1.9249    5.9955    7.3604 C.ar      1 <0>        -0.1080
     38 Cl1         0.7012    0.1956    6.4520 Cl        1 <0>        -0.0497
     39 H1          1.0039    1.9031    0.0027 H         1 <0>         0.0654
     40 H2         -0.5459    1.8868   -0.8726 H         1 <0>         0.0591
     41 H3         -0.5289    1.8773    0.9072 H         1 <0>         0.0551
     42 H4          0.5123   -0.3556   -0.8948 H         1 <0>         0.0878
     43 H5          0.5293   -0.3651    0.8851 H         1 <0>         0.0880
     44 H6         -4.8305   -1.7763   -2.3606 H         1 <0>         0.4139
     45 H7         -3.4503   -1.2645   -3.1703 H         1 <0>         0.4159
     46 H8         -3.6530   -1.3650    3.2033 H         1 <0>         0.4120
     47 H9         -4.9862   -1.8524    2.3047 H         1 <0>         0.4079
     48 H10         0.1048   -2.0412    2.2004 H         1 <0>         0.1358
     49 H11         1.2335   -1.6398    4.3459 H         1 <0>         0.1430
     50 H12        -2.7250    1.0460    3.1018 H         1 <0>         0.1372
     51 H13        -4.2552    5.1431    6.0193 H         1 <0>         0.0990
     52 H14        -4.4724    4.1544    4.5553 H         1 <0>         0.1110
     53 H15        -6.5085    4.0374    5.9095 H         1 <0>         0.0851
     54 H16        -5.6953    2.4544    5.9433 H         1 <0>         0.0756
     55 H17        -4.6625    4.0830    9.9732 H         1 <0>         0.1365
     56 H18        -4.6522    4.1408   12.4319 H         1 <0>         0.1332
     57 H19        -6.5350    3.1895   13.6975 H         1 <0>         0.1311
     58 H20        -8.4376    2.1740   12.5140 H         1 <0>         0.1343
     59 H21        -8.4737    2.1159   10.0554 H         1 <0>         0.1375
     60 H22        -3.2582    3.8321    8.0398 H         1 <0>         0.0940
     61 H23        -1.9974    2.6601    7.5869 H         1 <0>         0.0965
     62 H24         0.0761    3.4009    6.5593 H         1 <0>         0.1269
     63 H25         1.6944    5.2395    6.3063 H         1 <0>         0.1206
     64 H26         0.9955    7.5619    6.7316 H         1 <0>         0.1205
     65 H27        -1.3218    8.0459    7.4091 H         1 <0>         0.1214
     66 H28        -2.9423    6.2081    7.6539 H         1 <0>         0.1206
@<TRIPOS>BOND
     1    1    2 1
     2    1   39 1
     3    1   40 1
     4    1   41 1
     5    2    3 1
     6    2   42 1
     7    2   43 1
     8    3    8 ar
     9    3    4 ar
    10    4    5 ar
    11    4   11 1
    12    5    6 ar
    13    5   10 1
    14    6    7 ar
    15    7    8 ar
    16    7    9 1
    17    9   44 1
    18    9   45 1
    19   10   46 1
    20   10   47 1
    21   11   16 ar
    22   11   12 ar
    23   12   13 ar
    24   12   48 1
    25   13   14 ar
    26   13   49 1
    27   14   15 ar
    28   14   38 1
    29   15   16 ar
    30   15   17 1
    31   16   50 1
    32   17   18 2
    33   18   19 1
    34   19   20 1
    35   19   31 1
    36   20   21 1
    37   20   51 1
    38   20   52 1
    39   21   22 1
    40   21   53 1
    41   21   54 1
    42   22   23 1
    43   23   24 2
    44   23   25 1
    45   25   30 ar
    46   25   26 ar
    47   26   27 ar
    48   26   55 1
    49   27   28 ar
    50   27   56 1
    51   28   29 ar
    52   28   57 1
    53   29   30 ar
    54   29   58 1
    55   30   59 1
    56   31   32 1
    57   31   60 1
    58   31   61 1
    59   32   37 ar
    60   32   33 ar
    61   33   34 ar
    62   33   62 1
    63   34   35 ar
    64   34   63 1
    65   35   36 ar
    66   35   64 1
    67   36   37 ar
    68   36   65 1
    69   37   66 1
@<TRIPOS>MOLECULE
CHEMBL433045
   52    55     0     0     0
SMALL
USER_CHARGES

@<TRIPOS>ATOM
      1 C1          2.5364   -0.7491   -0.3546 C.3       1 <0>        -0.1719
      2 C2          1.1956   -1.3049    0.1296 C.3       1 <0>         0.4022
      3 N1          0.1949   -1.1814   -0.9367 N.pl3     1 <0>        -0.6960
      4 C3         -1.0585   -0.9582   -0.6434 C.cat     1 <0>         0.7285
      5 N2         -1.4745   -0.7896    0.6233 N.2       1 <0>        -0.6371
      6 C4         -0.6096   -0.5909    1.6008 C.2       1 <0>         0.7310
      7 N3          0.7297   -0.5331    1.2921 N.pl3     1 <0>        -0.5931
      8 C5          1.6166    0.2329    2.0558 C.ar      1 <0>         0.0869
      9 C6          1.7473    1.5943    1.8133 C.ar      1 <0>        -0.0908
     10 C7          2.6238    2.3477    2.5690 C.ar      1 <0>        -0.1026
     11 C8          3.3714    1.7479    3.5662 C.ar      1 <0>        -0.0646
     12 C9          3.2435    0.3930    3.8101 C.ar      1 <0>        -0.0755
     13 C10         2.3640   -0.3650    3.0619 C.ar      1 <0>        -0.0844
     14 C11         4.0601   -0.2563    4.8977 C.3       1 <0>         0.0954
     15 O1          3.3366   -0.2091    6.1291 O.3       1 <0>        -0.3114
     16 C12         3.9367   -0.7562    7.2186 C.ar      1 <0>         0.1239
     17 C13         5.2089   -1.3235    7.0936 C.ar      1 <0>        -0.1951
     18 C14         5.8351   -1.8785    8.1655 C.ar      1 <0>        -0.0590
     19 C15         5.1987   -1.8839    9.4191 C.ar      1 <0>        -0.0818
     20 C16         5.8171   -2.4484   10.5476 C.ar      1 <0>        -0.0953
     21 C17         5.1723   -2.4361   11.7461 C.ar      1 <0>        -0.1230
     22 C18         3.9046   -1.8711   11.8733 C.ar      1 <0>        -0.0997
     23 C19         3.2748   -1.3152   10.8026 C.ar      1 <0>        -0.1176
     24 C20         3.9094   -1.3092    9.5483 C.ar      1 <0>        -0.0148
     25 C21         3.2921   -0.7399    8.4225 C.ar      1 <0>        -0.1472
     26 N4         -1.0357   -0.4452    2.8917 N.pl3     1 <0>        -0.7687
     27 N5         -1.9836   -0.8930   -1.6657 N.pl3     1 <0>        -0.7921
     28 C22         1.3574   -2.7758    0.5184 C.3       1 <0>        -0.1813
     29 H1          3.2919   -0.8998    0.4164 H         1 <0>         0.1008
     30 H2          2.8374   -1.2679   -1.2647 H         1 <0>         0.0986
     31 H3          2.4349    0.3165   -0.5605 H         1 <0>         0.0831
     32 H4          1.1644    2.0631    1.0343 H         1 <0>         0.1295
     33 H5          2.7259    3.4062    2.3810 H         1 <0>         0.1431
     34 H6          4.0567    2.3392    4.1554 H         1 <0>         0.1409
     35 H7          2.2614   -1.4225    3.2558 H         1 <0>         0.1362
     36 H8          4.2583   -1.2947    4.6323 H         1 <0>         0.0759
     37 H9          5.0042    0.2765    5.0104 H         1 <0>         0.0802
     38 H10         5.7008   -1.3210    6.1321 H         1 <0>         0.1289
     39 H11         6.8173   -2.3136    8.0542 H         1 <0>         0.1339
     40 H12         6.7991   -2.8901   10.4642 H         1 <0>         0.1291
     41 H13         5.6500   -2.8710   12.6116 H         1 <0>         0.1265
     42 H14         3.4147   -1.8748   12.8358 H         1 <0>         0.1269
     43 H15         2.2923   -0.8813   10.9159 H         1 <0>         0.1290
     44 H16         2.3117   -0.2949    8.5075 H         1 <0>         0.1339
     45 H17        -1.9762   -0.5470    3.1064 H         1 <0>         0.4408
     46 H18        -0.3976   -0.2400    3.5928 H         1 <0>         0.4311
     47 H19        -1.6992   -1.0123   -2.5854 H         1 <0>         0.4289
     48 H20        -2.9180   -0.7280   -1.4645 H         1 <0>         0.4409
     49 H21         2.0939   -2.8615    1.3174 H         1 <0>         0.0960
     50 H22         0.4005   -3.1680    0.8627 H         1 <0>         0.0721
     51 H23         1.6932   -3.3458   -0.3479 H         1 <0>         0.0972
     52 H24         0.4656   -1.2657   -1.8643 H         1 <0>         0.4315
@<TRIPOS>BOND
     1    1    2 1
     2    1   29 1
     3    1   30 1
     4    1   31 1
     5    2    7 1
     6    2    3 1
     7    2   28 1
     8    3    4 2
     9    3   52 1
    10    4    5 1
    11    4   27 1
    12    5    6 2
    13    6    7 1
    14    6   26 1
    15    7    8 1
    16    8   13 ar
    17    8    9 ar
    18    9   10 ar
    19    9   32 1
    20   10   11 ar
    21   10   33 1
    22   11   12 ar
    23   11   34 1
    24   12   13 ar
    25   12   14 1
    26   13   35 1
    27   14   15 1
    28   14   36 1
    29   14   37 1
    30   15   16 1
    31   16   25 ar
    32   16   17 ar
    33   17   18 ar
    34   17   38 1
    35   18   19 ar
    36   18   39 1
    37   19   24 ar
    38   19   20 ar
    39   20   21 ar
    40   20   40 1
    41   21   22 ar
    42   21   41 1
    43   22   23 ar
    44   22   42 1
    45   23   24 ar
    46   23   43 1
    47   24   25 ar
    48   25   44 1
    49   26   45 1
    50   26   46 1
    51   27   47 1
    52   27   48 1
    53   28   49 1
    54   28   50 1
    55   28   51 1
@<TRIPOS>MOLECULE
CHEMBL353621
   50    53     0     0     0
SMALL
USER_CHARGES

@<TRIPOS>ATOM
      1 C1          0.2696    1.2179   -0.3308 C.3       1 <0>         0.0230
      2 O1          0.2695   -0.2106   -0.3684 O.3       1 <0>        -0.2972
      3 C2         -0.9402   -0.8296   -0.3134 C.ar      1 <0>         0.1542
      4 C3         -2.1020   -0.0772   -0.2309 C.ar      1 <0>        -0.2119
      5 C4         -3.3320   -0.7054   -0.1750 C.ar      1 <0>        -0.0545
      6 C5         -3.4094   -2.0853   -0.2010 C.ar      1 <0>        -0.2167
      7 C6         -2.2523   -2.8450   -0.2833 C.ar      1 <0>         0.1522
      8 C7         -1.0139   -2.2171   -0.3455 C.ar      1 <0>         0.0452
      9 O2          0.1237   -2.9590   -0.4320 O.3       1 <0>        -0.3129
     10 C8          0.7409   -3.3461    0.7973 C.3       1 <0>         0.0350
     11 O3         -2.3294   -4.2025   -0.3083 O.3       1 <0>        -0.2969
     12 C9         -3.6353   -4.7794   -0.2465 C.3       1 <0>         0.0237
     13 C10        -4.5920    0.1163   -0.0849 C.3       1 <0>         0.1434
     14 N1         -5.0788    0.4134   -1.4344 N.pl3     1 <0>        -0.4424
     15 C11        -4.8080    1.5490   -2.1439 C.2       1 <0>         0.1056
     16 C12        -5.4156    1.4849   -3.3423 C.2       1 <0>        -0.2194
     17 C13        -6.1094    0.2541   -3.4102 C.ar      1 <0>        -0.0342
     18 C14        -5.8794   -0.4101   -2.1966 C.ar      1 <0>         0.0559
     19 C15        -6.4419   -1.6697   -1.9720 C.ar      1 <0>         0.0089
     20 C16        -7.2134   -2.2830   -2.9067 C.ar      1 <0>        -0.1607
     21 C17        -7.4774   -1.6711   -4.1426 C.ar      1 <0>         0.2155
     22 C18        -6.9390   -0.3927   -4.4171 C.ar      1 <0>        -0.1584
     23 C19        -7.2161    0.2019   -5.6646 C.ar      1 <0>         0.5583
     24 N2         -7.9824   -0.4600   -6.5221 N.ar      1 <0>        -0.5894
     25 C20        -8.4816   -1.6550   -6.2223 C.ar      1 <0>         0.6798
     26 N3         -8.2372   -2.2625   -5.0767 N.ar      1 <0>        -0.5766
     27 N4         -9.2748   -2.2965   -7.1577 N.pl3     1 <0>        -0.7945
     28 N5         -6.7032    1.4428   -5.9863 N.pl3     1 <0>        -0.7843
     29 H1          1.2955    1.5826   -0.3816 H         1 <0>         0.1088
     30 H2         -0.2956    1.6037   -1.1792 H         1 <0>         0.0580
     31 H3         -0.1910    1.5570    0.5971 H         1 <0>         0.0596
     32 H4         -2.0457    1.0012   -0.2100 H         1 <0>         0.1383
     33 H5         -4.3723   -2.5723   -0.1567 H         1 <0>         0.1327
     34 H6          1.0144   -2.4553    1.3628 H         1 <0>         0.0474
     35 H7          0.0431   -3.9468    1.3808 H         1 <0>         0.0468
     36 H8          1.6358   -3.9315    0.5861 H         1 <0>         0.0984
     37 H9         -4.1233   -4.4753    0.6795 H         1 <0>         0.0590
     38 H10        -4.2245   -4.4368   -1.0972 H         1 <0>         0.0544
     39 H11        -3.5542   -5.8660   -0.2747 H         1 <0>         0.1081
     40 H12        -5.3522   -0.4428    0.4606 H         1 <0>         0.1088
     41 H13        -4.3811    1.0488    0.4387 H         1 <0>         0.1175
     42 H14        -4.2005    2.3715   -1.7962 H         1 <0>         0.1876
     43 H15        -5.3801    2.2388   -4.1149 H         1 <0>         0.1534
     44 H16        -6.2581   -2.1682   -1.0317 H         1 <0>         0.1443
     45 H17        -7.6302   -3.2568   -2.6960 H         1 <0>         0.1583
     46 H18        -9.4563   -1.8735   -8.0116 H         1 <0>         0.4435
     47 H19        -9.6492   -3.1691   -6.9594 H         1 <0>         0.4289
     48 H20        -5.9180    1.7774   -5.5254 H         1 <0>         0.4289
     49 H21        -7.1281    1.9800   -6.6732 H         1 <0>         0.4273
     50 H22        -8.6191   -3.1373   -4.9041 H         1 <0>         0.4393
@<TRIPOS>BOND
     1    1    2 1
     2    1   29 1
     3    1   30 1
     4    1   31 1
     5    2    3 1
     6    3    8 ar
     7    3    4 ar
     8    4    5 ar
     9    4   32 1
    10    5    6 ar
    11    5   13 1
    12    6    7 ar
    13    6   33 1
    14    7    8 ar
    15    7   11 1
    16    8    9 1
    17    9   10 1
    18   10   34 1
    19   10   35 1
    20   10   36 1
    21   11   12 1
    22   12   37 1
    23   12   38 1
    24   12   39 1
    25   13   14 1
    26   13   40 1
    27   13   41 1
    28   14   18 1
    29   14   15 1
    30   15   16 2
    31   15   42 1
    32   16   17 1
    33   16   43 1
    34   17   22 ar
    35   17   18 ar
    36   18   19 ar
    37   19   20 ar
    38   19   44 1
    39   20   21 ar
    40   20   45 1
    41   21   26 ar
    42   21   22 ar
    43   22   23 ar
    44   23   24 ar
    45   23   28 1
    46   24   25 ar
    47   25   26 ar
    48   25   27 1
    49   26   50 1
    50   27   46 1
    51   27   47 1
    52   28   48 1
    53   28   49 1
@<TRIPOS>MOLECULE
CHEMBL353621__1
   49    52     0     0     0
SMALL
USER_CHARGES

@<TRIPOS>ATOM
      1 C1          0.2696    1.2179   -0.3308 C.3       1 <0>         0.0241
      2 O1          0.2695   -0.2106   -0.3684 O.3       1 <0>        -0.3005
      3 C2         -0.9402   -0.8296   -0.3134 C.ar      1 <0>         0.1503
      4 C3         -2.1020   -0.0772   -0.2309 C.ar      1 <0>        -0.2135
      5 C4         -3.3320   -0.7054   -0.1750 C.ar      1 <0>        -0.0431
      6 C5         -3.4094   -2.0853   -0.2010 C.ar      1 <0>        -0.2122
      7 C6         -2.2523   -2.8450   -0.2833 C.ar      1 <0>         0.1520
      8 C7         -1.0139   -2.2171   -0.3455 C.ar      1 <0>         0.0379
      9 O2          0.1237   -2.9590   -0.4320 O.3       1 <0>        -0.3124
     10 C8          0.7409   -3.3461    0.7973 C.3       1 <0>         0.0355
     11 O3         -2.3294   -4.2025   -0.3083 O.3       1 <0>        -0.2999
     12 C9         -3.6353   -4.7794   -0.2465 C.3       1 <0>         0.0224
     13 C10        -4.5920    0.1163   -0.0849 C.3       1 <0>         0.1487
     14 N1         -5.0788    0.4134   -1.4344 N.pl3     1 <0>        -0.4493
     15 C11        -4.8080    1.5490   -2.1439 C.2       1 <0>         0.0575
     16 C12        -5.4156    1.4849   -3.3423 C.2       1 <0>        -0.2120
     17 C13        -6.1094    0.2541   -3.4102 C.ar      1 <0>        -0.0456
     18 C14        -5.8794   -0.4101   -2.1966 C.ar      1 <0>         0.0408
     19 C15        -6.4419   -1.6697   -1.9720 C.ar      1 <0>        -0.0473
     20 C16        -7.2134   -2.2830   -2.9067 C.ar      1 <0>        -0.1144
     21 C17        -7.4774   -1.6711   -4.1426 C.ar      1 <0>         0.2363
     22 C18        -6.9390   -0.3927   -4.4171 C.ar      1 <0>        -0.2032
     23 C19        -7.2161    0.2019   -5.6646 C.ar      1 <0>         0.5043
     24 N2         -7.9824   -0.4600   -6.5221 N.ar      1 <0>        -0.6284
     25 C20        -8.4816   -1.6550   -6.2223 C.ar      1 <0>         0.6023
     26 N3         -8.2372   -2.2625   -5.0767 N.ar      1 <0>        -0.6008
     27 N4         -9.2748   -2.2965   -7.1577 N.pl3     1 <0>        -0.8236
     28 N5         -6.7032    1.4428   -5.9863 N.pl3     1 <0>        -0.8332
     29 H1          1.2955    1.5826   -0.3816 H         1 <0>         0.1049
     30 H2         -0.2956    1.6037   -1.1792 H         1 <0>         0.0584
     31 H3         -0.1910    1.5570    0.5971 H         1 <0>         0.0575
     32 H4         -2.0457    1.0012   -0.2100 H         1 <0>         0.1361
     33 H5         -4.3723   -2.5723   -0.1567 H         1 <0>         0.1356
     34 H6          1.6358   -3.9315    0.5861 H         1 <0>         0.0944
     35 H7          1.0144   -2.4553    1.3628 H         1 <0>         0.0448
     36 H8          0.0431   -3.9468    1.3808 H         1 <0>         0.0452
     37 H9         -4.2245   -4.4368   -1.0972 H         1 <0>         0.0603
     38 H10        -3.5542   -5.8660   -0.2747 H         1 <0>         0.1058
     39 H11        -4.1233   -4.4753    0.6795 H         1 <0>         0.0577
     40 H12        -5.3522   -0.4428    0.4606 H         1 <0>         0.1016
     41 H13        -4.3811    1.0488    0.4387 H         1 <0>         0.1066
     42 H14        -4.2005    2.3715   -1.7962 H         1 <0>         0.1705
     43 H15        -5.3801    2.2388   -4.1149 H         1 <0>         0.1415
     44 H16        -6.2581   -2.1682   -1.0317 H         1 <0>         0.1209
     45 H17        -7.6302   -3.2568   -2.6960 H         1 <0>         0.1401
     46 H18        -9.4563   -1.8735   -8.0116 H         1 <0>         0.4118
     47 H19        -9.6492   -3.1691   -6.9594 H         1 <0>         0.4141
     48 H20        -5.9180    1.7774   -5.5254 H         1 <0>         0.4125
     49 H21        -7.1281    1.9800   -6.6732 H         1 <0>         0.4068
@<TRIPOS>BOND
     1    1    2 1
     2    1   29 1
     3    1   30 1
     4    1   31 1
     5    2    3 1
     6    3    8 ar
     7    3    4 ar
     8    4    5 ar
     9    4   32 1
    10    5    6 ar
    11    5   13 1
    12    6    7 ar
    13    6   33 1
    14    7    8 ar
    15    7   11 1
    16    8    9 1
    17    9   10 1
    18   10   34 1
    19   10   35 1
    20   10   36 1
    21   11   12 1
    22   12   37 1
    23   12   38 1
    24   12   39 1
    25   13   14 1
    26   13   40 1
    27   13   41 1
    28   14   18 1
    29   14   15 1
    30   15   16 2
    31   15   42 1
    32   16   17 1
    33   16   43 1
    34   17   22 ar
    35   17   18 ar
    36   18   19 ar
    37   19   20 ar
    38   19   44 1
    39   20   21 ar
    40   20   45 1
    41   21   26 ar
    42   21   22 ar
    43   22   23 ar
    44   23   24 ar
    45   23   28 1
    46   24   25 ar
    47   25   26 ar
    48   25   27 1
    49   27   46 1
    50   27   47 1
    51   28   48 1
    52   28   49 1
@<TRIPOS>MOLECULE
CHEMBL21395
   48    50     0     0     0
SMALL
USER_CHARGES

@<TRIPOS>ATOM
      1 C1         -0.0187    1.5258    0.0104 C.3       1 <0>        -0.1523
      2 C2          0.0021   -0.0041    0.0020 C.3       1 <0>         0.0533
      3 O1          0.6709   -0.4649   -1.1737 O.3       1 <0>        -0.3039
      4 C3          0.7768   -1.8109   -1.3363 C.ar      1 <0>         0.1091
      5 C4          0.2435   -2.6690   -0.3879 C.ar      1 <0>        -0.1664
      6 C5          0.3516   -4.0370   -0.5549 C.ar      1 <0>        -0.0737
      7 C6          0.9916   -4.5523   -1.6668 C.ar      1 <0>        -0.1154
      8 C7          1.5263   -3.7019   -2.6164 C.ar      1 <0>        -0.1688
      9 C8          1.4160   -2.3297   -2.4582 C.ar      1 <0>         0.0972
     10 O2          1.9361   -1.4917   -3.3945 O.3       1 <0>        -0.2971
     11 C9          2.5780   -2.0947   -4.5199 C.3       1 <0>         0.1013
     12 C10         3.0884   -1.0186   -5.4433 C.ar      1 <0>        -0.0965
     13 C11         2.2781   -0.5319   -6.4520 C.ar      1 <0>        -0.0947
     14 C12         2.7463    0.4551   -7.2990 C.ar      1 <0>        -0.1231
     15 C13         4.0245    0.9558   -7.1370 C.ar      1 <0>        -0.1092
     16 C14         4.8345    0.4698   -6.1277 C.ar      1 <0>        -0.1232
     17 C15         4.3648   -0.5143   -5.2780 C.ar      1 <0>        -0.0945
     18 C16        -0.2290   -4.9686    0.4775 C.3       1 <0>        -0.0120
     19 C17        -1.6565   -5.2907    0.1174 C.ar      1 <0>        -0.3056
     20 C18        -2.7018   -4.5685    0.6592 C.ar      1 <0>         0.2218
     21 N1         -3.9456   -4.8762    0.3221 N.ar      1 <0>        -0.6051
     22 C19        -4.1973   -5.8637   -0.5247 C.ar      1 <0>         0.6015
     23 N2         -3.2236   -6.5802   -1.0657 N.ar      1 <0>        -0.6271
     24 C20        -1.9522   -6.3222   -0.7762 C.ar      1 <0>         0.4879
     25 N3         -0.9355   -7.0696   -1.3482 N.pl3     1 <0>        -0.8353
     26 N4         -5.5104   -6.1540   -0.8516 N.pl3     1 <0>        -0.8218
     27 H1          1.0039    1.9031    0.0027 H         1 <0>         0.0664
     28 H2         -0.5459    1.8868   -0.8726 H         1 <0>         0.0662
     29 H3         -0.5289    1.8773    0.9072 H         1 <0>         0.0789
     30 H4          0.5293   -0.3651    0.8851 H         1 <0>         0.0617
     31 H5         -1.0205   -0.3814    0.0098 H         1 <0>         0.0613
     32 H6         -0.2563   -2.2690    0.4819 H         1 <0>         0.1349
     33 H7          1.0743   -5.6217   -1.7935 H         1 <0>         0.1199
     34 H8          2.0261   -4.1070   -3.4839 H         1 <0>         0.1342
     35 H9          3.4131   -2.7058   -4.1775 H         1 <0>         0.0706
     36 H10         1.8634   -2.7219   -5.0528 H         1 <0>         0.0697
     37 H11         1.2794   -0.9231   -6.5785 H         1 <0>         0.1234
     38 H12         2.1135    0.8349   -8.0875 H         1 <0>         0.1255
     39 H13         4.3905    1.7265   -7.7992 H         1 <0>         0.1246
     40 H14         5.8333    0.8607   -6.0014 H         1 <0>         0.1256
     41 H15         4.9962   -0.8914   -4.4872 H         1 <0>         0.1239
     42 H16         0.3549   -5.8886    0.5061 H         1 <0>         0.0754
     43 H17        -0.2005   -4.4896    1.4562 H         1 <0>         0.0856
     44 H18        -2.5074   -3.7619    1.3506 H         1 <0>         0.1620
     45 H19        -0.0103   -6.8779   -1.1288 H         1 <0>         0.4095
     46 H20        -1.1490   -7.7845   -1.9680 H         1 <0>         0.4062
     47 H21        -6.2328   -5.6370   -0.4621 H         1 <0>         0.4151
     48 H22        -5.7082   -6.8744   -1.4702 H         1 <0>         0.4129
@<TRIPOS>BOND
     1    1    2 1
     2    1   27 1
     3    1   28 1
     4    1   29 1
     5    2    3 1
     6    2   30 1
     7    2   31 1
     8    3    4 1
     9    4    9 ar
    10    4    5 ar
    11    5    6 ar
    12    5   32 1
    13    6    7 ar
    14    6   18 1
    15    7    8 ar
    16    7   33 1
    17    8    9 ar
    18    8   34 1
    19    9   10 1
    20   10   11 1
    21   11   12 1
    22   11   35 1
    23   11   36 1
    24   12   17 ar
    25   12   13 ar
    26   13   14 ar
    27   13   37 1
    28   14   15 ar
    29   14   38 1
    30   15   16 ar
    31   15   39 1
    32   16   17 ar
    33   16   40 1
    34   17   41 1
    35   18   19 1
    36   18   42 1
    37   18   43 1
    38   19   24 ar
    39   19   20 ar
    40   20   21 ar
    41   20   44 1
    42   21   22 ar
    43   22   23 ar
    44   22   26 1
    45   23   24 ar
    46   24   25 1
    47   25   45 1
    48   25   46 1
    49   26   47 1
    50   26   48 1
@<TRIPOS>MOLECULE
CHEMBL21395__1
   49    51     0     0     0
SMALL
USER_CHARGES

@<TRIPOS>ATOM
      1 C1         -0.0187    1.5258    0.0104 C.3       1 <0>        -0.1563
      2 C2          0.0021   -0.0041    0.0020 C.3       1 <0>         0.0555
      3 O1          0.6709   -0.4649   -1.1737 O.3       1 <0>        -0.2989
      4 C3          0.7768   -1.8109   -1.3363 C.ar      1 <0>         0.1134
      5 C4          0.2435   -2.6690   -0.3879 C.ar      1 <0>        -0.1676
      6 C5          0.3516   -4.0370   -0.5549 C.ar      1 <0>        -0.1032
      7 C6          0.9916   -4.5523   -1.6668 C.ar      1 <0>        -0.1126
      8 C7          1.5263   -3.7019   -2.6164 C.ar      1 <0>        -0.1685
      9 C8          1.4160   -2.3297   -2.4582 C.ar      1 <0>         0.1153
     10 O2          1.9361   -1.4917   -3.3945 O.3       1 <0>        -0.2928
     11 C9          2.5780   -2.0947   -4.5199 C.3       1 <0>         0.1021
     12 C10         3.0884   -1.0186   -5.4433 C.ar      1 <0>        -0.1039
     13 C11         2.2781   -0.5319   -6.4520 C.ar      1 <0>        -0.0948
     14 C12         2.7463    0.4551   -7.2990 C.ar      1 <0>        -0.1223
     15 C13         4.0245    0.9558   -7.1370 C.ar      1 <0>        -0.1044
     16 C14         4.8345    0.4698   -6.1277 C.ar      1 <0>        -0.1213
     17 C15         4.3648   -0.5143   -5.2780 C.ar      1 <0>        -0.0935
     18 C16        -0.2290   -4.9686    0.4775 C.3       1 <0>        -0.0247
     19 C17        -1.6565   -5.2907    0.1174 C.ar      1 <0>        -0.2193
     20 C18        -2.7018   -4.5685    0.6592 C.ar      1 <0>         0.2053
     21 N1         -3.9456   -4.8762    0.3221 N.ar      1 <0>        -0.5699
     22 C19        -4.1973   -5.8640   -0.5243 C.ar      1 <0>         0.6616
     23 N2         -3.2237   -6.5805   -1.0653 N.ar      1 <0>        -0.5732
     24 C20        -1.9522   -6.3222   -0.7762 C.ar      1 <0>         0.5359
     25 N3         -0.9355   -7.0696   -1.3482 N.pl3     1 <0>        -0.7774
     26 N4         -5.5104   -6.1546   -0.8509 N.pl3     1 <0>        -0.7921
     27 H1          1.0039    1.9031    0.0027 H         1 <0>         0.0706
     28 H2         -0.5459    1.8868   -0.8726 H         1 <0>         0.0682
     29 H3         -0.5289    1.8773    0.9072 H         1 <0>         0.0815
     30 H4          0.5293   -0.3651    0.8851 H         1 <0>         0.0638
     31 H5         -1.0205   -0.3814    0.0098 H         1 <0>         0.0574
     32 H6         -0.2563   -2.2690    0.4819 H         1 <0>         0.1362
     33 H7          1.0743   -5.6217   -1.7935 H         1 <0>         0.1193
     34 H8          2.0261   -4.1070   -3.4839 H         1 <0>         0.1406
     35 H9          3.4131   -2.7058   -4.1775 H         1 <0>         0.0737
     36 H10         1.8634   -2.7219   -5.0528 H         1 <0>         0.0715
     37 H11         1.2794   -0.9231   -6.5785 H         1 <0>         0.1222
     38 H12         2.1135    0.8349   -8.0875 H         1 <0>         0.1271
     39 H13         4.3905    1.7265   -7.7992 H         1 <0>         0.1273
     40 H14         5.8333    0.8607   -6.0014 H         1 <0>         0.1280
     41 H15         4.9962   -0.8914   -4.4872 H         1 <0>         0.1242
     42 H16         0.3549   -5.8886    0.5061 H         1 <0>         0.0973
     43 H17        -0.2005   -4.4896    1.4562 H         1 <0>         0.1078
     44 H18        -2.5074   -3.7619    1.3506 H         1 <0>         0.2133
     45 H19        -0.0103   -6.8779   -1.1288 H         1 <0>         0.4291
     46 H20        -1.1490   -7.7845   -1.9680 H         1 <0>         0.4284
     47 H21        -6.2328   -5.6376   -0.4614 H         1 <0>         0.4306
     48 H22        -5.7083   -6.8752   -1.4693 H         1 <0>         0.4448
     49 H23        -4.6824   -4.3713    0.7005 H         1 <0>         0.4445
@<TRIPOS>BOND
     1    1    2 1
     2    1   27 1
     3    1   28 1
     4    1   29 1
     5    2    3 1
     6    2   30 1
     7    2   31 1
     8    3    4 1
     9    4    9 ar
    10    4    5 ar
    11    5    6 ar
    12    5   32 1
    13    6    7 ar
    14    6   18 1
    15    7    8 ar
    16    7   33 1
    17    8    9 ar
    18    8   34 1
    19    9   10 1
    20   10   11 1
    21   11   12 1
    22   11   35 1
    23   11   36 1
    24   12   17 ar
    25   12   13 ar
    26   13   14 ar
    27   13   37 1
    28   14   15 ar
    29   14   38 1
    30   15   16 ar
    31   15   39 1
    32   16   17 ar
    33   16   40 1
    34   17   41 1
    35   18   19 1
    36   18   42 1
    37   18   43 1
    38   19   24 ar
    39   19   20 ar
    40   20   21 ar
    41   20   44 1
    42   21   22 ar
    43   21   49 1
    44   22   23 ar
    45   22   26 1
    46   23   24 ar
    47   24   25 1
    48   25   45 1
    49   25   46 1
    50   26   47 1
    51   26   48 1
@<TRIPOS>MOLECULE
CHEMBL103558
   65    68     0     0     0
SMALL
USER_CHARGES

@<TRIPOS>ATOM
      1 C1         -0.3381   -1.0396    1.2547 C.3       1 <0>        -0.1546
      2 C2         -0.1270    0.0979    0.2535 C.3       1 <0>        -0.1030
      3 C3          0.6425   -0.4161   -0.9359 C.ar      1 <0>         0.2533
      4 C4          2.0259   -0.5659   -0.8702 C.ar      1 <0>        -0.1820
      5 C5          2.6982   -1.0495   -2.0078 C.ar      1 <0>         0.5394
      6 N1          1.9923   -1.3428   -3.0937 N.ar      1 <0>        -0.5735
      7 C6          0.6773   -1.1841   -3.1099 C.ar      1 <0>         0.6668
      8 N2          0.0122   -0.7363   -2.0547 N.ar      1 <0>        -0.5689
      9 N3         -0.0233   -1.5003   -4.2606 N.pl3     1 <0>        -0.7900
     10 N4          4.0719   -1.2163   -1.9953 N.pl3     1 <0>        -0.7716
     11 C7          2.7705   -0.2243    0.3659 C.ar      1 <0>        -0.1288
     12 C8          2.8591    1.1033    0.7832 C.ar      1 <0>        -0.0023
     13 C9          3.5519    1.4185    1.9327 C.ar      1 <0>        -0.1868
     14 C10         4.1622    0.4143    2.6752 C.ar      1 <0>         0.2994
     15 C11         4.0756   -0.9094    2.2610 C.ar      1 <0>        -0.1212
     16 C12         3.3781   -1.2303    1.1155 C.ar      1 <0>         0.0060
     17 N5          4.7274   -1.9764    3.0534 N.pl3     1 <0>         0.0385
     18 O1          5.2496   -2.9120    2.4932 O.2       1 <0>        -0.1386
     19 O2          4.7376   -1.9124    4.2606 O.3       1 <0>        -0.1682
     20 N6          4.8640    0.7362    3.8393 N.pl3     1 <0>        -0.7092
     21 C13         5.0347    2.1384    4.2276 C.3       1 <0>         0.1529
     22 C14         5.8219    2.2122    5.5105 C.ar      1 <0>        -0.1036
     23 C15         5.1615    2.1902    6.7261 C.ar      1 <0>        -0.0989
     24 C16         5.8761    2.2573    7.9042 C.ar      1 <0>        -0.0902
     25 C17         7.2685    2.3476    7.8680 C.ar      1 <0>        -0.1075
     26 C18         7.9286    2.3694    6.6384 C.ar      1 <0>        -0.0663
     27 C19         7.2023    2.2959    5.4677 C.ar      1 <0>        -0.1000
     28 C20         8.0408    2.4205    9.1266 C.2       1 <0>         0.5563
     29 O3          8.9916    3.1727    9.2136 O.2       1 <0>        -0.5280
     30 N7          7.6905    1.6528   10.1775 N.am      1 <0>        -0.6045
     31 C21         6.6238    0.6505   10.0499 C.3       1 <0>         0.0959
     32 C22         7.1647   -0.7067   10.5106 C.3       1 <0>        -0.1366
     33 C23         7.7338   -0.5711   11.9248 C.3       1 <0>        -0.1225
     34 C24         8.8895    0.4322   11.9174 C.3       1 <0>        -0.1363
     35 C25         8.3723    1.7981   11.4709 C.3       1 <0>         0.1093
     36 H1         -0.9733   -1.8042    0.8074 H         1 <0>         0.0660
     37 H2          0.6256   -1.4760    1.5174 H         1 <0>         0.0682
     38 H3         -0.8170   -0.6491    2.1527 H         1 <0>         0.0887
     39 H4         -1.0947    0.4763   -0.0757 H         1 <0>         0.1047
     40 H5          0.4345    0.9016    0.7298 H         1 <0>         0.1210
     41 H6          0.4490   -1.8327   -5.0400 H         1 <0>         0.4459
     42 H7         -0.9865   -1.3895   -4.2879 H         1 <0>         0.4308
     43 H8          4.5796   -0.9993   -1.1978 H         1 <0>         0.4315
     44 H9          4.5271   -1.5503   -2.7841 H         1 <0>         0.4300
     45 H10         2.3858    1.8839    0.2063 H         1 <0>         0.1463
     46 H11         3.6209    2.4466    2.2564 H         1 <0>         0.1558
     47 H12         3.3067   -2.2598    0.7967 H         1 <0>         0.1493
     48 H13         5.2384    0.0313    4.3905 H         1 <0>         0.4200
     49 H14         5.5704    2.6705    3.4415 H         1 <0>         0.0860
     50 H15         4.0566    2.5963    4.3747 H         1 <0>         0.0879
     51 H16         4.0840    2.1206    6.7527 H         1 <0>         0.1333
     52 H17         5.3594    2.2404    8.8524 H         1 <0>         0.1371
     53 H18         9.0058    2.4392    6.6035 H         1 <0>         0.1374
     54 H19         7.7121    2.3082    4.5157 H         1 <0>         0.1316
     55 H20         5.7768    0.9370   10.6733 H         1 <0>         0.0734
     56 H21         6.3079    0.5837    9.0088 H         1 <0>         0.0927
     57 H22         6.3571   -1.4387   10.5121 H         1 <0>         0.0788
     58 H23         7.9519   -1.0341    9.8315 H         1 <0>         0.0679
     59 H24         6.9523   -0.2199   12.5986 H         1 <0>         0.0662
     60 H25         8.0971   -1.5410   12.2645 H         1 <0>         0.0691
     61 H26         9.3095    0.5108   12.9201 H         1 <0>         0.0796
     62 H27         9.6604    0.0940   11.2250 H         1 <0>         0.0673
     63 H28         9.2096    2.4881   11.3671 H         1 <0>         0.0952
     64 H29         7.6710    2.1802   12.2127 H         1 <0>         0.0715
     65 H30        -0.9515   -0.6377   -2.1045 H         1 <0>         0.4421
@<TRIPOS>BOND
     1    1    2 1
     2    1   36 1
     3    1   37 1
     4    1   38 1
     5    2    3 1
     6    2   39 1
     7    2   40 1
     8    3    8 ar
     9    3    4 ar
    10    4    5 ar
    11    4   11 1
    12    5    6 ar
    13    5   10 1
    14    6    7 ar
    15    7    8 ar
    16    7    9 1
    17    8   65 1
    18    9   41 1
    19    9   42 1
    20   10   43 1
    21   10   44 1
    22   11   16 ar
    23   11   12 ar
    24   12   13 ar
    25   12   45 1
    26   13   14 ar
    27   13   46 1
    28   14   15 ar
    29   14   20 1
    30   15   16 ar
    31   15   17 1
    32   16   47 1
    33   17   18 2
    34   17   19 1
    35   20   21 1
    36   20   48 1
    37   21   22 1
    38   21   49 1
    39   21   50 1
    40   22   27 ar
    41   22   23 ar
    42   23   24 ar
    43   23   51 1
    44   24   25 ar
    45   24   52 1
    46   25   26 ar
    47   25   28 1
    48   26   27 ar
    49   26   53 1
    50   27   54 1
    51   28   29 2
    52   28   30 am
    53   30   35 1
    54   30   31 1
    55   31   32 1
    56   31   55 1
    57   31   56 1
    58   32   33 1
    59   32   57 1
    60   32   58 1
    61   33   34 1
    62   33   59 1
    63   33   60 1
    64   34   35 1
    65   34   61 1
    66   34   62 1
    67   35   63 1
    68   35   64 1
@<TRIPOS>MOLECULE
CHEMBL103558__1
   64    67     0     0     0
SMALL
USER_CHARGES

@<TRIPOS>ATOM
      1 C1          1.0947    1.3592   -0.1711 C.3       1 <0>        -0.1421
      2 C2          0.8336   -0.1474   -0.1181 C.3       1 <0>        -0.0793
      3 C3         -0.6442   -0.4064   -0.2602 C.ar      1 <0>         0.2686
      4 C4         -1.4629   -0.4582    0.8657 C.ar      1 <0>        -0.2812
      5 C5         -2.8361   -0.7030    0.6799 C.ar      1 <0>         0.4983
      6 N1         -3.2959   -0.8742   -0.5541 N.ar      1 <0>        -0.6295
      7 C6         -2.4790   -0.8163   -1.5953 C.ar      1 <0>         0.6123
      8 N2         -1.1820   -0.5822   -1.4565 N.ar      1 <0>        -0.6021
      9 N3         -2.9960   -1.0004   -2.8656 N.pl3     1 <0>        -0.8181
     10 N4         -3.6929   -0.7648    1.7649 N.pl3     1 <0>        -0.8298
     11 C7         -0.9021   -0.2610    2.2242 C.ar      1 <0>        -0.0628
     12 C8          0.0114   -1.1783    2.7425 C.ar      1 <0>        -0.0128
     13 C9          0.5314   -0.9929    4.0057 C.ar      1 <0>        -0.1906
     14 C10         0.1454    0.1071    4.7629 C.ar      1 <0>         0.2787
     15 C11        -0.7651    1.0224    4.2487 C.ar      1 <0>        -0.1174
     16 C12        -1.2829    0.8447    2.9830 C.ar      1 <0>        -0.0146
     17 N5         -1.1748    2.1922    5.0579 N.pl3     1 <0>         0.0445
     18 O1         -2.3183    2.5831    5.0197 O.2       1 <0>        -0.1492
     19 O2         -0.3661    2.7568    5.7570 O.3       1 <0>        -0.1812
     20 N6          0.6734    0.2926    6.0428 N.pl3     1 <0>        -0.7247
     21 C13         1.5559   -0.7214    6.6251 C.3       1 <0>         0.1570
     22 C14         1.9844   -0.2835    8.0020 C.ar      1 <0>        -0.0945
     23 C15         3.1290    0.4781    8.1574 C.ar      1 <0>        -0.0986
     24 C16         3.5268    0.8822    9.4150 C.ar      1 <0>        -0.0942
     25 C17         2.7718    0.5211   10.5320 C.ar      1 <0>        -0.1125
     26 C18         1.6182   -0.2473   10.3683 C.ar      1 <0>        -0.0685
     27 C19         1.2284   -0.6401    9.1045 C.ar      1 <0>        -0.0999
     28 C20         3.1924    0.9503   11.8828 C.2       1 <0>         0.5591
     29 O3          3.1917    0.1541   12.8013 O.2       1 <0>        -0.5312
     30 N7          3.5767    2.2244   12.0959 N.am      1 <0>        -0.6042
     31 C21         3.6660    3.1760   10.9800 C.3       1 <0>         0.0897
     32 C22         2.8370    4.4177   11.3232 C.3       1 <0>        -0.1367
     33 C23         3.3020    4.9808   12.6681 C.3       1 <0>        -0.1219
     34 C24         3.0827    3.9354   13.7641 C.3       1 <0>        -0.1359
     35 C25         3.9086    2.6899   13.4494 C.3       1 <0>         0.1103
     36 H1          2.1636    1.5466   -0.0684 H         1 <0>         0.0659
     37 H2          0.7466    1.7550   -1.1252 H         1 <0>         0.0608
     38 H3          0.5601    1.8495    0.6424 H         1 <0>         0.0538
     39 H4          1.3683   -0.6377   -0.9316 H         1 <0>         0.0888
     40 H5          1.1818   -0.5431    0.8360 H         1 <0>         0.0849
     41 H6         -3.9439   -1.1689   -2.9837 H         1 <0>         0.4145
     42 H7         -2.4105   -0.9608   -3.6380 H         1 <0>         0.4162
     43 H8         -3.3483   -0.6388    2.6628 H         1 <0>         0.4118
     44 H9         -4.6381   -0.9340    1.6275 H         1 <0>         0.4092
     45 H10         0.3110   -2.0335    2.1548 H         1 <0>         0.1421
     46 H11         1.2389   -1.7031    4.4075 H         1 <0>         0.1472
     47 H12        -1.9866    1.5590    2.5817 H         1 <0>         0.1436
     48 H13         0.4556    1.0927    6.5460 H         1 <0>         0.4151
     49 H14         1.0234   -1.6699    6.6949 H         1 <0>         0.0803
     50 H15         2.4353   -0.8441    5.9928 H         1 <0>         0.0827
     51 H16         3.7126    0.7565    7.2923 H         1 <0>         0.1340
     52 H17         4.4207    1.4764    9.5350 H         1 <0>         0.1362
     53 H18         1.0296   -0.5300   11.2285 H         1 <0>         0.1345
     54 H19         0.3336   -1.2310    8.9760 H         1 <0>         0.1318
     55 H20         4.7064    3.4623   10.8262 H         1 <0>         0.0734
     56 H21         3.2742    2.7141   10.0737 H         1 <0>         0.0991
     57 H22         2.9718    5.1711   10.5471 H         1 <0>         0.0789
     58 H23         1.7835    4.1454   11.3875 H         1 <0>         0.0683
     59 H24         4.3617    5.2298   12.6107 H         1 <0>         0.0655
     60 H25         2.7304    5.8786   12.9030 H         1 <0>         0.0680
     61 H26         3.3923    4.3456   14.7253 H         1 <0>         0.0783
     62 H27         2.0269    3.6677   13.8054 H         1 <0>         0.0668
     63 H28         3.6768    1.9074   14.1720 H         1 <0>         0.0937
     64 H29         4.9692    2.9357   13.5015 H         1 <0>         0.0700
@<TRIPOS>BOND
     1    1    2 1
     2    1   36 1
     3    1   37 1
     4    1   38 1
     5    2    3 1
     6    2   39 1
     7    2   40 1
     8    3    8 ar
     9    3    4 ar
    10    4    5 ar
    11    4   11 1
    12    5    6 ar
    13    5   10 1
    14    6    7 ar
    15    7    8 ar
    16    7    9 1
    17    9   41 1
    18    9   42 1
    19   10   43 1
    20   10   44 1
    21   11   16 ar
    22   11   12 ar
    23   12   13 ar
    24   12   45 1
    25   13   14 ar
    26   13   46 1
    27   14   15 ar
    28   14   20 1
    29   15   16 ar
    30   15   17 1
    31   16   47 1
    32   17   18 2
    33   17   19 1
    34   20   21 1
    35   20   48 1
    36   21   22 1
    37   21   49 1
    38   21   50 1
    39   22   27 ar
    40   22   23 ar
    41   23   24 ar
    42   23   51 1
    43   24   25 ar
    44   24   52 1
    45   25   26 ar
    46   25   28 1
    47   26   27 ar
    48   26   53 1
    49   27   54 1
    50   28   29 2
    51   28   30 am
    52   30   35 1
    53   30   31 1
    54   31   32 1
    55   31   55 1
    56   31   56 1
    57   32   33 1
    58   32   57 1
    59   32   58 1
    60   33   34 1
    61   33   59 1
    62   33   60 1
    63   34   35 1
    64   34   61 1
    65   34   62 1
    66   35   63 1
    67   35   64 1
@<TRIPOS>MOLECULE
CHEMBL7357
   46    48     0     0     0
SMALL
USER_CHARGES

@<TRIPOS>ATOM
      1 C1          2.5364   -0.7493   -0.3545 C.3       1 <0>        -0.1728
      2 C2          1.1956   -1.3050    0.1296 C.3       1 <0>         0.4031
      3 N1          0.1949   -1.1814   -0.9367 N.pl3     1 <0>        -0.6954
      4 C3         -1.0583   -0.9576   -0.6434 C.cat     1 <0>         0.7286
      5 N2         -1.4746   -0.7899    0.6233 N.2       1 <0>        -0.6368
      6 C4         -0.6098   -0.5917    1.6010 C.2       1 <0>         0.7321
      7 N3          0.7296   -0.5332    1.2921 N.pl3     1 <0>        -0.5932
      8 C5          1.6165    0.2326    2.0559 C.ar      1 <0>         0.1311
      9 C6          1.7470    1.5944    1.8130 C.ar      1 <0>        -0.1416
     10 C7          2.6224    2.3506    2.5676 C.ar      1 <0>        -0.0587
     11 C8          3.3710    1.7554    3.5654 C.ar      1 <0>        -0.1840
     12 C9          3.2448    0.3957    3.8125 C.ar      1 <0>         0.1524
     13 C10         2.3631   -0.3656    3.0612 C.ar      1 <0>        -0.1469
     14 O1          3.9818   -0.1882    4.7937 O.3       1 <0>        -0.3018
     15 C11         4.8662    0.6577    5.5314 C.3       1 <0>         0.1024
     16 C12         5.5938   -0.1587    6.5683 C.ar      1 <0>        -0.1081
     17 C13         5.0525   -0.3135    7.8308 C.ar      1 <0>        -0.0941
     18 C14         5.7199   -1.0624    8.7819 C.ar      1 <0>        -0.1215
     19 C15         6.9284   -1.6568    8.4705 C.ar      1 <0>        -0.1023
     20 C16         7.4694   -1.5027    7.2077 C.ar      1 <0>        -0.1214
     21 C17         6.7999   -0.7574    6.2552 C.ar      1 <0>        -0.0941
     22 N4         -1.0362   -0.4470    2.8919 N.pl3     1 <0>        -0.7691
     23 N5         -1.9833   -0.8919   -1.6659 N.pl3     1 <0>        -0.7923
     24 C18         1.3572   -2.7759    0.5184 C.3       1 <0>        -0.1817
     25 H1          3.2919   -0.9001    0.4166 H         1 <0>         0.1017
     26 H2          2.8375   -1.2681   -1.2645 H         1 <0>         0.0986
     27 H3          2.4350    0.3163   -0.5603 H         1 <0>         0.0839
     28 H4          1.1637    2.0618    1.0334 H         1 <0>         0.1285
     29 H5          2.7225    3.4090    2.3773 H         1 <0>         0.1421
     30 H6          4.0552    2.3491    4.1533 H         1 <0>         0.1424
     31 H7          2.2606   -1.4231    3.2548 H         1 <0>         0.1417
     32 H8          5.5889    1.1089    4.8515 H         1 <0>         0.0773
     33 H9          4.2919    1.4423    6.0241 H         1 <0>         0.0773
     34 H10         4.1083    0.1508    8.0741 H         1 <0>         0.1241
     35 H11         5.2973   -1.1828    9.7685 H         1 <0>         0.1284
     36 H12         7.4502   -2.2412    9.2138 H         1 <0>         0.1282
     37 H13         8.4137   -1.9668    6.9645 H         1 <0>         0.1285
     38 H14         7.2206   -0.6400    5.2675 H         1 <0>         0.1241
     39 H15        -1.9766   -0.5491    3.1064 H         1 <0>         0.4407
     40 H16        -0.3982   -0.2421    3.5933 H         1 <0>         0.4307
     41 H17        -1.6989   -1.0111   -2.5856 H         1 <0>         0.4288
     42 H18        -2.9177   -0.7265   -1.4648 H         1 <0>         0.4407
     43 H19         2.0936   -2.8618    1.3174 H         1 <0>         0.0976
     44 H20         0.4002   -3.1680    0.8626 H         1 <0>         0.0719
     45 H21         1.6930   -3.3459   -0.3480 H         1 <0>         0.0972
     46 H22         0.4656   -1.2660   -1.8643 H         1 <0>         0.4317
@<TRIPOS>BOND
     1    1    2 1
     2    1   25 1
     3    1   26 1
     4    1   27 1
     5    2    7 1
     6    2    3 1
     7    2   24 1
     8    3    4 2
     9    3   46 1
    10    4    5 1
    11    4   23 1
    12    5    6 2
    13    6    7 1
    14    6   22 1
    15    7    8 1
    16    8   13 ar
    17    8    9 ar
    18    9   10 ar
    19    9   28 1
    20   10   11 ar
    21   10   29 1
    22   11   12 ar
    23   11   30 1
    24   12   13 ar
    25   12   14 1
    26   13   31 1
    27   14   15 1
    28   15   16 1
    29   15   32 1
    30   15   33 1
    31   16   21 ar
    32   16   17 ar
    33   17   18 ar
    34   17   34 1
    35   18   19 ar
    36   18   35 1
    37   19   20 ar
    38   19   36 1
    39   20   21 ar
    40   20   37 1
    41   21   38 1
    42   22   39 1
    43   22   40 1
    44   23   41 1
    45   23   42 1
    46   24   43 1
    47   24   44 1
    48   24   45 1
@<TRIPOS>MOLECULE
CHEMBL369258
   43    45     0     0     0
SMALL
USER_CHARGES

@<TRIPOS>ATOM
      1 C1         -0.4754    0.4671   -1.4353 C.3       1 <0>        -0.1558
      2 C2         -0.4683   -1.0556   -1.5853 C.3       1 <0>        -0.0833
      3 C3         -1.8472   -1.5945   -1.3035 C.2       1 <0>         0.1416
      4 C4         -2.8628   -1.6281   -2.1849 C.2       1 <0>        -0.2224
      5 C5         -3.9795   -2.2049   -1.5361 C.ar      1 <0>        -0.0330
      6 C6         -3.5768   -2.5114   -0.2281 C.ar      1 <0>         0.0544
      7 N1         -2.2570   -2.1297   -0.1153 N.pl3     1 <0>        -0.4337
      8 C7         -1.4293   -2.2718    1.0851 C.3       1 <0>         0.1522
      9 C8         -0.8203   -0.9160    1.4480 C.3       1 <0>        -0.1746
     10 C9         -2.2941   -2.7694    2.2450 C.3       1 <0>        -0.1741
     11 C10        -0.3089   -3.2784    0.8158 C.3       1 <0>        -0.1678
     12 C11        -4.4802   -3.0997    0.6614 C.ar      1 <0>        -0.0079
     13 C12        -5.7558   -3.3889    0.2949 C.ar      1 <0>        -0.1664
     14 C13        -6.2188   -3.1067   -1.0003 C.ar      1 <0>         0.2143
     15 C14        -5.3450   -2.5110   -1.9390 C.ar      1 <0>        -0.1609
     16 C15        -5.8313   -2.2367   -3.2331 C.ar      1 <0>         0.5577
     17 N2         -7.0899   -2.5497   -3.5132 N.ar      1 <0>        -0.5903
     18 C16        -7.8814   -3.1086   -2.6032 C.ar      1 <0>         0.6786
     19 N3         -7.4751   -3.3857   -1.3788 N.ar      1 <0>        -0.5764
     20 N4         -9.1853   -3.4125   -2.9545 N.pl3     1 <0>        -0.7957
     21 N5         -5.0180   -1.6560   -4.1860 N.pl3     1 <0>        -0.7860
     22 H1          0.5418    0.8464   -1.5322 H         1 <0>         0.0731
     23 H2         -1.1023    0.9057   -2.2115 H         1 <0>         0.0647
     24 H3         -0.8707    0.7338   -0.4551 H         1 <0>         0.0619
     25 H4         -0.1759   -1.3191   -2.6017 H         1 <0>         0.0999
     26 H5          0.2416   -1.4869   -0.8795 H         1 <0>         0.0892
     27 H6         -2.8313   -1.2769   -3.2057 H         1 <0>         0.1507
     28 H7         -1.6110   -0.1688    1.5151 H         1 <0>         0.0686
     29 H8         -0.3100   -0.9922    2.4081 H         1 <0>         0.0860
     30 H9         -0.1060   -0.6210    0.6793 H         1 <0>         0.0803
     31 H10        -2.6287   -3.7860    2.0386 H         1 <0>         0.0754
     32 H11        -1.7092   -2.7590    3.1647 H         1 <0>         0.0919
     33 H12        -3.1604   -2.1176    2.3579 H         1 <0>         0.0747
     34 H13         0.3601   -2.8818    0.0521 H         1 <0>         0.0726
     35 H14         0.2512   -3.4530    1.7344 H         1 <0>         0.0867
     36 H15        -0.7400   -4.2176    0.4691 H         1 <0>         0.0680
     37 H16        -4.1559   -3.3304    1.6653 H         1 <0>         0.1632
     38 H17        -6.4243   -3.8436    1.0110 H         1 <0>         0.1571
     39 H18        -9.5045   -3.2172   -3.8494 H         1 <0>         0.4430
     40 H19        -9.7798   -3.8207   -2.3058 H         1 <0>         0.4285
     41 H20        -4.0536   -1.7231   -4.1066 H         1 <0>         0.4287
     42 H21        -5.4111   -1.1809   -4.9348 H         1 <0>         0.4265
     43 H22        -8.0888   -3.7943   -0.7484 H         1 <0>         0.4389
@<TRIPOS>BOND
     1    1    2 1
     2    1   22 1
     3    1   23 1
     4    1   24 1
     5    2    3 1
     6    2   25 1
     7    2   26 1
     8    3    7 1
     9    3    4 2
    10    4    5 1
    11    4   27 1
    12    5   15 ar
    13    5    6 ar
    14    6    7 1
    15    6   12 ar
    16    7    8 1
    17    8    9 1
    18    8   10 1
    19    8   11 1
    20    9   28 1
    21    9   29 1
    22    9   30 1
    23   10   31 1
    24   10   32 1
    25   10   33 1
    26   11   34 1
    27   11   35 1
    28   11   36 1
    29   12   13 ar
    30   12   37 1
    31   13   14 ar
    32   13   38 1
    33   14   19 ar
    34   14   15 ar
    35   15   16 ar
    36   16   17 ar
    37   16   21 1
    38   17   18 ar
    39   18   19 ar
    40   18   20 1
    41   19   43 1
    42   20   39 1
    43   20   40 1
    44   21   41 1
    45   21   42 1
@<TRIPOS>MOLECULE
CHEMBL34274
   52    54     0     0     0
SMALL
USER_CHARGES

@<TRIPOS>ATOM
      1 C1          2.5364   -0.7491   -0.3546 C.3       1 <0>        -0.1717
      2 C2          1.1956   -1.3049    0.1296 C.3       1 <0>         0.4021
      3 N1          0.1949   -1.1814   -0.9367 N.pl3     1 <0>        -0.6961
      4 C3         -1.0585   -0.9582   -0.6434 C.cat     1 <0>         0.7284
      5 N2         -1.4745   -0.7896    0.6233 N.2       1 <0>        -0.6378
      6 C4         -0.6096   -0.5909    1.6008 C.2       1 <0>         0.7309
      7 N3          0.7297   -0.5331    1.2921 N.pl3     1 <0>        -0.5923
      8 C5          1.6166    0.2329    2.0558 C.ar      1 <0>         0.0863
      9 C6          1.7473    1.5943    1.8133 C.ar      1 <0>        -0.0953
     10 C7          2.6238    2.3477    2.5690 C.ar      1 <0>        -0.1030
     11 C8          3.3714    1.7479    3.5662 C.ar      1 <0>        -0.0683
     12 C9          3.2435    0.3930    3.8101 C.ar      1 <0>        -0.0693
     13 C10         2.3640   -0.3650    3.0619 C.ar      1 <0>        -0.0873
     14 C11         4.0601   -0.2563    4.8977 C.3       1 <0>         0.0962
     15 O1          3.3366   -0.2091    6.1291 O.3       1 <0>        -0.3770
     16 C12         4.0262   -0.8018    7.2315 C.3       1 <0>         0.0909
     17 C13         3.6678   -2.2867    7.3185 C.3       1 <0>        -0.1389
     18 C14         4.4062   -2.9212    8.4988 C.3       1 <0>        -0.1196
     19 C15         3.9938   -2.2202    9.7947 C.3       1 <0>        -0.1247
     20 C16         4.3522   -0.7353    9.7077 C.3       1 <0>        -0.1192
     21 C17         3.6138   -0.1008    8.5274 C.3       1 <0>        -0.1153
     22 N4         -1.0357   -0.4452    2.8917 N.pl3     1 <0>        -0.7687
     23 N5         -1.9836   -0.8930   -1.6657 N.pl3     1 <0>        -0.7925
     24 C18         1.3574   -2.7758    0.5184 C.3       1 <0>        -0.1809
     25 H1          3.2919   -0.8998    0.4164 H         1 <0>         0.1008
     26 H2          2.8374   -1.2679   -1.2647 H         1 <0>         0.0982
     27 H3          2.4349    0.3165   -0.5605 H         1 <0>         0.0830
     28 H4          1.1644    2.0631    1.0343 H         1 <0>         0.1277
     29 H5          2.7259    3.4062    2.3810 H         1 <0>         0.1412
     30 H6          4.0567    2.3392    4.1554 H         1 <0>         0.1390
     31 H7          2.2614   -1.4225    3.2558 H         1 <0>         0.1342
     32 H8          4.2583   -1.2947    4.6323 H         1 <0>         0.0618
     33 H9          5.0042    0.2765    5.0104 H         1 <0>         0.0666
     34 H10         5.1013   -0.6953    7.0871 H         1 <0>         0.0635
     35 H11         2.5927   -2.3931    7.4629 H         1 <0>         0.0703
     36 H12         3.9616   -2.7860    6.3952 H         1 <0>         0.0601
     37 H13         4.1509   -3.9790    8.5608 H         1 <0>         0.0675
     38 H14         5.4813   -2.8148    8.3544 H         1 <0>         0.0638
     39 H15         2.9186   -2.3266    9.9391 H         1 <0>         0.0643
     40 H16         4.5198   -2.6723   10.6356 H         1 <0>         0.0673
     41 H17         4.0584   -0.2359   10.6309 H         1 <0>         0.0716
     42 H18         5.4273   -0.6289    9.5633 H         1 <0>         0.0646
     43 H19         3.8691    0.9571    8.4654 H         1 <0>         0.0694
     44 H20         2.5386   -0.2072    8.6718 H         1 <0>         0.0709
     45 H21        -1.9762   -0.5470    3.1064 H         1 <0>         0.4404
     46 H22        -0.3976   -0.2400    3.5928 H         1 <0>         0.4313
     47 H23        -1.6992   -1.0123   -2.5854 H         1 <0>         0.4287
     48 H24        -2.9180   -0.7280   -1.4645 H         1 <0>         0.4407
     49 H25         2.0939   -2.8615    1.3174 H         1 <0>         0.0959
     50 H26         0.4005   -3.1680    0.8627 H         1 <0>         0.0718
     51 H27         1.6932   -3.3458   -0.3479 H         1 <0>         0.0969
     52 H28         0.4656   -1.2657   -1.8643 H         1 <0>         0.4313
@<TRIPOS>BOND
     1    1    2 1
     2    1   25 1
     3    1   26 1
     4    1   27 1
     5    2    7 1
     6    2    3 1
     7    2   24 1
     8    3    4 2
     9    3   52 1
    10    4    5 1
    11    4   23 1
    12    5    6 2
    13    6    7 1
    14    6   22 1
    15    7    8 1
    16    8   13 ar
    17    8    9 ar
    18    9   10 ar
    19    9   28 1
    20   10   11 ar
    21   10   29 1
    22   11   12 ar
    23   11   30 1
    24   12   13 ar
    25   12   14 1
    26   13   31 1
    27   14   15 1
    28   14   32 1
    29   14   33 1
    30   15   16 1
    31   16   21 1
    32   16   17 1
    33   16   34 1
    34   17   18 1
    35   17   35 1
    36   17   36 1
    37   18   19 1
    38   18   37 1
    39   18   38 1
    40   19   20 1
    41   19   39 1
    42   19   40 1
    43   20   21 1
    44   20   41 1
    45   20   42 1
    46   21   43 1
    47   21   44 1
    48   22   45 1
    49   22   46 1
    50   23   47 1
    51   23   48 1
    52   24   49 1
    53   24   50 1
    54   24   51 1
@<TRIPOS>MOLECULE
CHEMBL357629
   52    55     0     0     0
SMALL
USER_CHARGES

@<TRIPOS>ATOM
      1 C1          0.6027    1.5059    0.0256 C.3       1 <0>        -0.1674
      2 C2          0.5978   -0.0011    0.0167 C.ar      1 <0>         0.0779
      3 C3          0.7711   -0.7002   -1.1492 C.ar      1 <0>        -0.1716
      4 C4          0.7631   -2.0894   -1.1308 C.ar      1 <0>         0.2399
      5 N1          0.5923   -2.7658   -0.0167 N.ar      1 <0>        -0.4988
      6 C5          0.4186   -2.1439    1.1496 C.ar      1 <0>         0.4069
      7 C6          0.4219   -0.7279    1.1996 C.ar      1 <0>        -0.2406
      8 C7          0.2403   -0.0941    2.4537 C.ar      1 <0>         0.5788
      9 N2          0.0801   -0.8575    3.5253 N.ar      1 <0>        -0.5786
     10 C8          0.0882   -2.1844    3.4357 C.ar      1 <0>         0.6994
     11 N3          0.2432   -2.8239    2.2916 N.ar      1 <0>        -0.5722
     12 N4         -0.0838   -2.9256    4.5891 N.pl3     1 <0>        -0.7775
     13 N5          0.2308    1.2796    2.5567 N.pl3     1 <0>        -0.8023
     14 C9          0.9696    0.0364   -2.4489 C.3       1 <0>         0.1687
     15 N6          2.3622    0.4797   -2.5512 N.pl3     1 <0>        -0.7463
     16 C10         2.7894    1.1902   -3.6790 C.ar      1 <0>         0.1877
     17 C11         1.8947    1.4794   -4.6959 C.ar      1 <0>        -0.1538
     18 C12         2.3239    2.1870   -5.8170 C.ar      1 <0>        -0.0301
     19 C13         3.6512    2.6011   -5.9115 C.ar      1 <0>        -0.1168
     20 C14         4.5401    2.3106   -4.8962 C.ar      1 <0>        -0.1587
     21 C15         4.1144    1.6123   -3.7770 C.ar      1 <0>         0.0635
     22 O1          4.9918    1.3334   -2.7763 O.3       1 <0>        -0.3256
     23 C16         6.3336    1.7959   -2.9423 C.3       1 <0>         0.0296
     24 C17         1.3691    2.4986   -6.9090 C.ar      1 <0>        -0.0456
     25 C18         0.0402    2.0899   -6.8138 C.ar      1 <0>        -0.1127
     26 C19        -0.8438    2.3830   -7.8324 C.ar      1 <0>        -0.1178
     27 C20        -0.4129    3.0809   -8.9462 C.ar      1 <0>        -0.1168
     28 C21         0.9050    3.4890   -9.0459 C.ar      1 <0>        -0.1149
     29 C22         1.7964    3.2061   -8.0309 C.ar      1 <0>        -0.1099
     30 H1          1.5940    1.8644    0.3030 H         1 <0>         0.1070
     31 H2          0.3472    1.8760   -0.9673 H         1 <0>         0.1066
     32 H3         -0.1295    1.8674    0.7476 H         1 <0>         0.1052
     33 H4          0.9004   -2.6280   -2.0567 H         1 <0>         0.1944
     34 H5         -0.2071   -2.4769    5.4402 H         1 <0>         0.4481
     35 H6         -0.0814   -3.8947    4.5477 H         1 <0>         0.4338
     36 H7         -0.4109    1.7180    3.1371 H         1 <0>         0.4308
     37 H8          0.8658    1.8084    2.0488 H         1 <0>         0.4363
     38 H9          0.7374   -0.6273   -3.2818 H         1 <0>         0.0828
     39 H10         0.3092    0.9030   -2.4798 H         1 <0>         0.0829
     40 H11         2.9882    0.2808   -1.8374 H         1 <0>         0.4047
     41 H12         0.8668    1.1570   -4.6202 H         1 <0>         0.1311
     42 H13         3.9847    3.1495   -6.7801 H         1 <0>         0.1285
     43 H14         5.5683    2.6322   -4.9718 H         1 <0>         0.1326
     44 H15         6.9273    1.5074   -2.0748 H         1 <0>         0.0993
     45 H16         6.7627    1.3513   -3.8403 H         1 <0>         0.0572
     46 H17         6.3345    2.8816   -3.0384 H         1 <0>         0.0568
     47 H18        -0.2972    1.5446   -5.9448 H         1 <0>         0.1208
     48 H19        -1.8738    2.0664   -7.7598 H         1 <0>         0.1240
     49 H20        -1.1079    3.3078   -9.7410 H         1 <0>         0.1243
     50 H21         1.2361    4.0337   -9.9177 H         1 <0>         0.1260
     51 H22         2.8242    3.5287   -8.1080 H         1 <0>         0.1260
     52 H23         0.2412   -3.7938    2.2786 H         1 <0>         0.4460
@<TRIPOS>BOND
     1    1    2 1
     2    1   30 1
     3    1   31 1
     4    1   32 1
     5    2    7 ar
     6    2    3 ar
     7    3    4 ar
     8    3   14 1
     9    4    5 ar
    10    4   33 1
    11    5    6 ar
    12    6   11 ar
    13    6    7 ar
    14    7    8 ar
    15    8    9 ar
    16    8   13 1
    17    9   10 ar
    18   10   11 ar
    19   10   12 1
    20   11   52 1
    21   12   34 1
    22   12   35 1
    23   13   36 1
    24   13   37 1
    25   14   15 1
    26   14   38 1
    27   14   39 1
    28   15   16 1
    29   15   40 1
    30   16   21 ar
    31   16   17 ar
    32   17   18 ar
    33   17   41 1
    34   18   19 ar
    35   18   24 1
    36   19   20 ar
    37   19   42 1
    38   20   21 ar
    39   20   43 1
    40   21   22 1
    41   22   23 1
    42   23   44 1
    43   23   45 1
    44   23   46 1
    45   24   29 ar
    46   24   25 ar
    47   25   26 ar
    48   25   47 1
    49   26   27 ar
    50   26   48 1
    51   27   28 ar
    52   27   49 1
    53   28   29 ar
    54   28   50 1
    55   29   51 1
@<TRIPOS>MOLECULE
CHEMBL357629__1
   51    54     0     0     0
SMALL
USER_CHARGES

@<TRIPOS>ATOM
      1 C1          0.6027    1.5059    0.0256 C.3       1 <0>        -0.1536
      2 C2          0.5978   -0.0011    0.0167 C.ar      1 <0>         0.0607
      3 C3          0.7711   -0.7002   -1.1492 C.ar      1 <0>        -0.2154
      4 C4          0.7631   -2.0894   -1.1308 C.ar      1 <0>         0.2102
      5 N1          0.5923   -2.7658   -0.0167 N.ar      1 <0>        -0.4897
      6 C5          0.4186   -2.1439    1.1496 C.ar      1 <0>         0.4161
      7 C6          0.4219   -0.7279    1.1996 C.ar      1 <0>        -0.2819
      8 C7          0.2403   -0.0941    2.4537 C.ar      1 <0>         0.5247
      9 N2          0.0801   -0.8575    3.5253 N.ar      1 <0>        -0.6174
     10 C8          0.0882   -2.1844    3.4357 C.ar      1 <0>         0.6248
     11 N3          0.2432   -2.8239    2.2916 N.ar      1 <0>        -0.5914
     12 N4         -0.0838   -2.9256    4.5891 N.pl3     1 <0>        -0.8106
     13 N5          0.2308    1.2796    2.5567 N.pl3     1 <0>        -0.8450
     14 C9          0.9696    0.0364   -2.4489 C.3       1 <0>         0.1788
     15 N6          2.3622    0.4797   -2.5512 N.pl3     1 <0>        -0.7397
     16 C10         2.7894    1.1902   -3.6790 C.ar      1 <0>         0.1986
     17 C11         1.8947    1.4794   -4.6959 C.ar      1 <0>        -0.1578
     18 C12         2.3239    2.1870   -5.8170 C.ar      1 <0>        -0.0335
     19 C13         3.6512    2.6011   -5.9115 C.ar      1 <0>        -0.1263
     20 C14         4.5401    2.3106   -4.8962 C.ar      1 <0>        -0.1600
     21 C15         4.1144    1.6123   -3.7770 C.ar      1 <0>         0.0587
     22 O1          4.9918    1.3334   -2.7763 O.3       1 <0>        -0.3220
     23 C16         6.3336    1.7959   -2.9423 C.3       1 <0>         0.0312
     24 C17         1.3691    2.4986   -6.9090 C.ar      1 <0>        -0.0387
     25 C18         0.0402    2.0899   -6.8138 C.ar      1 <0>        -0.1124
     26 C19        -0.8438    2.3830   -7.8324 C.ar      1 <0>        -0.1174
     27 C20        -0.4129    3.0809   -8.9462 C.ar      1 <0>        -0.1216
     28 C21         0.9050    3.4890   -9.0459 C.ar      1 <0>        -0.1173
     29 C22         1.7964    3.2061   -8.0309 C.ar      1 <0>        -0.1125
     30 H1          1.5940    1.8644    0.3030 H         1 <0>         0.0872
     31 H2          0.3472    1.8760   -0.9673 H         1 <0>         0.0856
     32 H3         -0.1295    1.8674    0.7476 H         1 <0>         0.0988
     33 H4          0.9004   -2.6280   -2.0567 H         1 <0>         0.1674
     34 H5         -0.2071   -2.4769    5.4402 H         1 <0>         0.4162
     35 H6         -0.0814   -3.8947    4.5477 H         1 <0>         0.4189
     36 H7         -0.4109    1.7180    3.1371 H         1 <0>         0.4106
     37 H8          0.8658    1.8084    2.0488 H         1 <0>         0.4186
     38 H9          0.7374   -0.6273   -3.2818 H         1 <0>         0.0715
     39 H10         0.3092    0.9030   -2.4798 H         1 <0>         0.0713
     40 H11         2.9882    0.2808   -1.8374 H         1 <0>         0.4054
     41 H12         0.8668    1.1570   -4.6202 H         1 <0>         0.1314
     42 H13         3.9847    3.1495   -6.7801 H         1 <0>         0.1246
     43 H14         5.5683    2.6322   -4.9718 H         1 <0>         0.1292
     44 H15         6.7627    1.3513   -3.8403 H         1 <0>         0.0546
     45 H16         6.3345    2.8816   -3.0384 H         1 <0>         0.0542
     46 H17         6.9273    1.5074   -2.0748 H         1 <0>         0.0978
     47 H18        -0.2972    1.5446   -5.9448 H         1 <0>         0.1235
     48 H19        -1.8738    2.0664   -7.7598 H         1 <0>         0.1233
     49 H20        -1.1079    3.3078   -9.7410 H         1 <0>         0.1218
     50 H21         1.2361    4.0337   -9.9177 H         1 <0>         0.1233
     51 H22         2.8242    3.5287   -8.1080 H         1 <0>         0.1250
@<TRIPOS>BOND
     1    1    2 1
     2    1   30 1
     3    1   31 1
     4    1   32 1
     5    2    7 ar
     6    2    3 ar
     7    3    4 ar
     8    3   14 1
     9    4    5 ar
    10    4   33 1
    11    5    6 ar
    12    6   11 ar
    13    6    7 ar
    14    7    8 ar
    15    8    9 ar
    16    8   13 1
    17    9   10 ar
    18   10   11 ar
    19   10   12 1
    20   12   34 1
    21   12   35 1
    22   13   36 1
    23   13   37 1
    24   14   15 1
    25   14   38 1
    26   14   39 1
    27   15   16 1
    28   15   40 1
    29   16   21 ar
    30   16   17 ar
    31   17   18 ar
    32   17   41 1
    33   18   19 ar
    34   18   24 1
    35   19   20 ar
    36   19   42 1
    37   20   21 ar
    38   20   43 1
    39   21   22 1
    40   22   23 1
    41   23   44 1
    42   23   45 1
    43   23   46 1
    44   24   29 ar
    45   24   25 ar
    46   25   26 ar
    47   25   47 1
    48   26   27 ar
    49   26   48 1
    50   27   28 ar
    51   27   49 1
    52   28   29 ar
    53   28   50 1
    54   29   51 1
@<TRIPOS>MOLECULE
CHEMBL33066
   42    44     0     0     0
SMALL
USER_CHARGES

@<TRIPOS>ATOM
      1 C1          2.5362   -0.7487   -0.3548 C.3       1 <0>        -0.1711
      2 C2          1.1956   -1.3047    0.1295 C.3       1 <0>         0.4021
      3 N1          0.1948   -1.1813   -0.9367 N.pl3     1 <0>        -0.6961
      4 C3         -1.0586   -0.9582   -0.6432 C.cat     1 <0>         0.7284
      5 N2         -1.4745   -0.7898    0.6234 N.2       1 <0>        -0.6384
      6 C4         -0.6096   -0.5910    1.6009 C.2       1 <0>         0.7307
      7 N3          0.7297   -0.5330    1.2921 N.pl3     1 <0>        -0.5904
      8 C5          1.6166    0.2330    2.0558 C.ar      1 <0>         0.0847
      9 C6          1.7492    1.5947    1.8153 C.ar      1 <0>        -0.1037
     10 C7          2.6281    2.3390    2.5718 C.ar      1 <0>        -0.1040
     11 C8          3.3820    1.7411    3.5746 C.ar      1 <0>        -0.0414
     12 C9          3.2490    0.3921    3.8189 C.ar      1 <0>        -0.0582
     13 C10         2.3637   -0.3611    3.0603 C.ar      1 <0>        -0.1068
     14 C11         4.0227   -0.3161    4.9002 C.3       1 <0>        -0.0864
     15 C12         5.2230    0.5205    5.3382 C.3       1 <0>        -0.1238
     16 C13         4.7334    1.9369    5.6617 C.3       1 <0>        -0.1238
     17 C14         4.3274    2.6164    4.3556 C.3       1 <0>        -0.0922
     18 N4         -1.0356   -0.4454    2.8918 N.pl3     1 <0>        -0.7700
     19 N5         -1.9838   -0.8931   -1.6655 N.pl3     1 <0>        -0.7928
     20 C15         1.3576   -2.7756    0.5182 C.3       1 <0>        -0.1806
     21 H1          3.2920   -0.8997    0.4160 H         1 <0>         0.1010
     22 H2          2.8371   -1.2672   -1.2651 H         1 <0>         0.0975
     23 H3          2.4347    0.3169   -0.5603 H         1 <0>         0.0826
     24 H4          1.1664    2.0678    1.0388 H         1 <0>         0.1255
     25 H5          2.7324    3.3973    2.3834 H         1 <0>         0.1367
     26 H6          2.2597   -1.4189    3.2515 H         1 <0>         0.1320
     27 H7          3.3704   -0.4849    5.7570 H         1 <0>         0.0838
     28 H8          4.3729   -1.2763    4.5213 H         1 <0>         0.0802
     29 H9          5.6755    0.0770    6.2251 H         1 <0>         0.0759
     30 H10         5.9560    0.5606    4.5325 H         1 <0>         0.0688
     31 H11         3.8744    1.8846    6.3307 H         1 <0>         0.0685
     32 H12         5.5349    2.5030    6.1363 H         1 <0>         0.0762
     33 H13         5.2185    2.8064    3.7573 H         1 <0>         0.0868
     34 H14         3.8374    3.5637    4.5804 H         1 <0>         0.0837
     35 H15        -1.9760   -0.5473    3.1066 H         1 <0>         0.4401
     36 H16        -0.3975   -0.2403    3.5929 H         1 <0>         0.4301
     37 H17        -1.6995   -1.0123   -2.5853 H         1 <0>         0.4287
     38 H18        -2.9182   -0.7282   -1.4642 H         1 <0>         0.4406
     39 H19         2.0941   -2.8613    1.3171 H         1 <0>         0.0961
     40 H20         0.4007   -3.1679    0.8625 H         1 <0>         0.0714
     41 H21         1.6934   -3.3455   -0.3482 H         1 <0>         0.0965
     42 H22         0.4654   -1.2655   -1.8644 H         1 <0>         0.4312
@<TRIPOS>BOND
     1    1    2 1
     2    1   21 1
     3    1   22 1
     4    1   23 1
     5    2    7 1
     6    2    3 1
     7    2   20 1
     8    3    4 2
     9    3   42 1
    10    4    5 1
    11    4   19 1
    12    5    6 2
    13    6    7 1
    14    6   18 1
    15    7    8 1
    16    8   13 ar
    17    8    9 ar
    18    9   10 ar
    19    9   24 1
    20   10   11 ar
    21   10   25 1
    22   11   17 1
    23   11   12 ar
    24   12   13 ar
    25   12   14 1
    26   13   26 1
    27   14   15 1
    28   14   27 1
    29   14   28 1
    30   15   16 1
    31   15   29 1
    32   15   30 1
    33   16   17 1
    34   16   31 1
    35   16   32 1
    36   17   33 1
    37   17   34 1
    38   18   35 1
    39   18   36 1
    40   19   37 1
    41   19   38 1
    42   20   39 1
    43   20   40 1
    44   20   41 1
@<TRIPOS>MOLECULE
CHEMBL117602
   54    56     0     0     0
SMALL
USER_CHARGES

@<TRIPOS>ATOM
      1 C1         -0.0168    1.3913    0.0097 C.ar      1 <0>        -0.0783
      2 C2          1.1671    2.0967    0.0022 C.ar      1 <0>        -0.0584
      3 C3          2.3853    1.4152   -0.0131 C.ar      1 <0>        -0.1332
      4 C4          2.4040    0.0194   -0.0207 C.ar      1 <0>        -0.0667
      5 C5          1.2198   -0.6855   -0.0132 C.ar      1 <0>        -0.1027
      6 C6          0.0021   -0.0041    0.0020 C.ar      1 <0>        -0.0561
      7 C7         -1.2699   -0.7616    0.0105 C.2       1 <0>         0.5412
      8 O1         -2.3304   -0.1682    0.0242 O.2       1 <0>        -0.5414
      9 N1         -1.2517   -2.1092    0.0031 N.am      1 <0>        -0.6692
     10 C8         -2.5104   -2.8588    0.0116 C.3       1 <0>         0.0707
     11 H1         -3.2591   -2.3182   -0.5676 H         1 <0>         0.0812
     12 C9         -2.2858   -4.2397   -0.6077 C.3       1 <0>        -0.0813
     13 C10        -1.9181   -4.0826   -2.0846 C.3       1 <0>        -0.1778
     14 C11        -1.6969   -5.4428   -2.6946 C.2       1 <0>         0.4901
     15 O2         -1.8217   -6.4449   -2.0114 O.co2     1 <0>        -0.6953
     16 O3         -1.3930   -5.5411   -3.8712 O.co2     1 <0>        -0.7198
     17 C12        -2.9914   -3.0170    1.4310 C.2       1 <0>         0.4958
     18 O4         -2.3428   -2.5472    2.3503 O.co2     1 <0>        -0.6984
     19 O5         -4.0290   -3.6148    1.6600 O.co2     1 <0>        -0.6939
     20 C13         3.6563    2.1721   -0.0216 C.2       1 <0>         0.5213
     21 O6          3.6399    3.3864   -0.0154 O.2       1 <0>        -0.5013
     22 O7          4.8317    1.5145   -0.0363 O.3       1 <0>        -0.3453
     23 C14         6.0195    2.3089   -0.0439 C.3       1 <0>         0.0972
     24 C15         7.2268    1.4071   -0.0601 C.ar      1 <0>        -0.0884
     25 C16         7.7851    0.9857    1.1432 C.ar      1 <0>         0.0035
     26 C17         8.8775    0.1703    1.1632 C.ar      1 <0>        -0.1452
     27 C18         9.4483   -0.2517   -0.0453 C.ar      1 <0>         0.2086
     28 C19         8.8784    0.1778   -1.2684 C.ar      1 <0>        -0.1946
     29 C20         7.7543    1.0105   -1.2540 C.ar      1 <0>        -0.0118
     30 C21         9.4723   -0.2620   -2.4777 C.ar      1 <0>         0.5656
     31 N2         10.5321   -1.0539   -2.4056 N.ar      1 <0>        -0.5982
     32 C22        11.0357   -1.4337   -1.2346 C.ar      1 <0>         0.6932
     33 N3         10.5226   -1.0540   -0.0799 N.ar      1 <0>        -0.5838
     34 N4         12.1435   -2.2618   -1.2271 N.pl3     1 <0>        -0.7908
     35 N5          8.9602    0.1238   -3.6978 N.pl3     1 <0>        -0.7640
     36 H2         -0.9593    1.9185    0.0260 H         1 <0>         0.1492
     37 H3          1.1524    3.1766    0.0077 H         1 <0>         0.1411
     38 H4          3.3464   -0.5081   -0.0328 H         1 <0>         0.1376
     39 H5          1.2342   -1.7654   -0.0191 H         1 <0>         0.1404
     40 H6         -0.4053   -2.5828   -0.0078 H         1 <0>         0.3893
     41 H7         -1.4752   -4.7456   -0.0833 H         1 <0>         0.0554
     42 H8         -3.1984   -4.8295   -0.5212 H         1 <0>         0.0820
     43 H9         -2.7288   -3.5767   -2.6090 H         1 <0>         0.0536
     44 H10        -1.0056   -3.4928   -2.1711 H         1 <0>         0.0479
     45 H11         6.0272    2.9424   -0.9308 H         1 <0>         0.0877
     46 H12         6.0445    2.9335    0.8490 H         1 <0>         0.0906
     47 H13         7.3464    1.3100    2.0753 H         1 <0>         0.1598
     48 H14         9.3006   -0.1483    2.1044 H         1 <0>         0.1612
     49 H15         7.3097    1.3401   -2.1814 H         1 <0>         0.1526
     50 H16        12.5368   -2.5533   -2.0645 H         1 <0>         0.4437
     51 H17        12.5271   -2.5510   -0.3844 H         1 <0>         0.4298
     52 H18         8.1835    0.7037   -3.7364 H         1 <0>         0.4333
     53 H19         9.3764   -0.1845   -4.5180 H         1 <0>         0.4325
     54 H20        10.9249   -1.3567    0.7492 H         1 <0>         0.4400
@<TRIPOS>BOND
     1    1    6 ar
     2    1    2 ar
     3    1   36 1
     4    2    3 ar
     5    2   37 1
     6    3    4 ar
     7    3   20 1
     8    4    5 ar
     9    4   38 1
    10    5    6 ar
    11    5   39 1
    12    6    7 1
    13    7    8 2
    14    7    9 am
    15    9   10 1
    16    9   40 1
    17   10   11 1
    18   10   12 1
    19   10   17 1
    20   12   13 1
    21   12   41 1
    22   12   42 1
    23   13   14 1
    24   13   43 1
    25   13   44 1
    26   14   15 2
    27   14   16 1
    28   17   18 2
    29   17   19 1
    30   20   21 2
    31   20   22 1
    32   22   23 1
    33   23   24 1
    34   23   45 1
    35   23   46 1
    36   24   29 ar
    37   24   25 ar
    38   25   26 ar
    39   25   47 1
    40   26   27 ar
    41   26   48 1
    42   27   33 ar
    43   27   28 ar
    44   28   29 ar
    45   28   30 ar
    46   29   49 1
    47   30   31 ar
    48   30   35 1
    49   31   32 ar
    50   32   33 ar
    51   32   34 1
    52   33   54 1
    53   34   50 1
    54   34   51 1
    55   35   52 1
    56   35   53 1
@<TRIPOS>MOLECULE
CHEMBL97598
   34    35     0     0     0
SMALL
USER_CHARGES

@<TRIPOS>ATOM
      1 C1         -0.0184    1.5028    0.0103 C.3       1 <0>        -0.1660
      2 C2          0.0021   -0.0041    0.0020 C.2       1 <0>         0.1790
      3 N1          0.0216   -0.6590    1.1224 N.2       1 <0>        -0.2892
      4 N2          0.0237    0.0349    2.3394 N.pl3     1 <0>        -0.5453
      5 C3          0.0443   -0.6551    3.5198 C.cat     1 <0>         0.5799
      6 N3          0.0628   -2.0225    3.5123 N.pl3     1 <0>        -0.7967
      7 S1          0.0467    0.1671    4.9619 S.3       1 <0>        -0.5615
      8 C4         -0.0001   -0.7343   -1.2787 C.ar      1 <0>        -0.0846
      9 C5         -0.0154   -0.0311   -2.4862 C.ar      1 <0>        -0.0463
     10 C6         -0.0174   -0.7178   -3.6810 C.ar      1 <0>        -0.1367
     11 C7         -0.0048   -2.1069   -3.6862 C.ar      1 <0>         0.1446
     12 C8          0.0104   -2.8100   -2.4882 C.ar      1 <0>        -0.1952
     13 C9          0.0188   -2.1315   -1.2888 C.ar      1 <0>        -0.0328
     14 O1         -0.0078   -2.7797   -4.8662 O.3       1 <0>        -0.2361
     15 C10         0.0049   -4.1367   -4.8263 C.ar      1 <0>         0.1445
     16 C11         1.2077   -4.8400   -4.8087 C.ar      1 <0>        -0.0942
     17 C12         1.1778   -6.2200   -4.7680 C.ar      1 <0>         0.1328
     18 N4          0.0304   -6.8713   -4.7458 N.ar      1 <0>        -0.4461
     19 C13        -1.1290   -6.2413   -4.7614 C.ar      1 <0>         0.1329
     20 C14        -1.1845   -4.8619   -4.7960 C.ar      1 <0>        -0.0941
     21 Cl1        -2.7151   -4.0429   -4.8088 Cl        1 <0>        -0.0155
     22 Cl2         2.7228   -3.9930   -4.8381 Cl        1 <0>        -0.0155
     23 H1          1.0042    1.8801    0.0026 H         1 <0>         0.0965
     24 H2         -0.5455    1.8639   -0.8728 H         1 <0>         0.0965
     25 H3         -0.5286    1.8543    0.9071 H         1 <0>         0.0755
     26 H4          0.0614   -2.5029    2.6697 H         1 <0>         0.4053
     27 H5          0.0774   -2.5120    4.3496 H         1 <0>         0.4304
     28 H6         -0.0259    1.0488   -2.4831 H         1 <0>         0.1450
     29 H7         -0.0292   -0.1752   -4.6147 H         1 <0>         0.1448
     30 H8          0.0201   -3.8899   -2.4969 H         1 <0>         0.1267
     31 H9          0.0351   -2.6789   -0.3579 H         1 <0>         0.1377
     32 H10         2.1053   -6.7732   -4.7544 H         1 <0>         0.1832
     33 H11        -2.0459   -6.8116   -4.7423 H         1 <0>         0.1832
     34 H12         0.0105    1.0048    2.3448 H         1 <0>         0.4170
@<TRIPOS>BOND
     1    1    2 1
     2    1   23 1
     3    1   24 1
     4    1   25 1
     5    2    3 2
     6    2    8 1
     7    3    4 1
     8    4    5 2
     9    4   34 1
    10    5    6 1
    11    5    7 1
    12    6   26 1
    13    6   27 1
    14    8   13 ar
    15    8    9 ar
    16    9   10 ar
    17    9   28 1
    18   10   11 ar
    19   10   29 1
    20   11   12 ar
    21   11   14 1
    22   12   13 ar
    23   12   30 1
    24   13   31 1
    25   14   15 1
    26   15   20 ar
    27   15   16 ar
    28   16   17 ar
    29   16   22 1
    30   17   18 ar
    31   17   32 1
    32   18   19 ar
    33   19   20 ar
    34   19   33 1
    35   20   21 1
@<TRIPOS>MOLECULE
CHEMBL603198
   45    48     0     0     0
SMALL
USER_CHARGES

@<TRIPOS>ATOM
      1 C1         -0.1983    1.3784   -0.2741 C.3       1 <0>         0.0252
      2 O1         -0.1562   -0.0493   -0.2279 O.3       1 <0>        -0.3190
      3 C2          0.5934   -0.6129    0.7555 C.ar      1 <0>         0.1306
      4 C3          1.2701    0.1915    1.6612 C.ar      1 <0>        -0.2043
      5 C4          2.0310   -0.3838    2.6601 C.ar      1 <0>        -0.0760
      6 C5          2.1187   -1.7604    2.7580 C.ar      1 <0>        -0.1498
      7 C6          1.4459   -2.5641    1.8567 C.ar      1 <0>        -0.0818
      8 C7          0.6788   -1.9936    0.8591 C.ar      1 <0>        -0.1122
      9 C8         -0.0594   -2.8703   -0.1193 C.3       1 <0>        -0.0068
     10 C9         -1.0488   -3.7586    0.6377 C.3       1 <0>        -0.0573
     11 C10        -2.1021   -2.8978    1.2863 C.2       1 <0>        -0.0978
     12 C11        -2.1152   -2.4567    2.5519 C.2       1 <0>         0.0205
     13 O2         -3.2163   -1.7131    2.7706 O.3       1 <0>        -0.1466
     14 C12        -3.9710   -1.6341    1.6620 C.ar      1 <0>         0.3185
     15 C13        -3.3158   -2.3684    0.6594 C.ar      1 <0>        -0.2574
     16 C14        -3.8949   -2.4447   -0.6150 C.ar      1 <0>         0.5806
     17 N1         -5.0460   -1.8131   -0.8255 N.ar      1 <0>        -0.5767
     18 C15        -5.6332   -1.1269    0.1464 C.ar      1 <0>         0.6968
     19 N2         -5.1221   -1.0378    1.3635 N.ar      1 <0>        -0.5517
     20 N3         -6.8311   -0.4859   -0.1212 N.pl3     1 <0>        -0.7839
     21 N4         -3.2836   -3.1594   -1.6291 N.pl3     1 <0>        -0.7693
     22 C16         0.9414   -3.7488   -0.8727 C.3       1 <0>        -0.1516
     23 C17         1.2478   -3.3833   -2.3265 C.3       1 <0>        -0.1703
     24 C18         0.4019   -4.6183   -2.0102 C.3       1 <0>        -0.1795
     25 H1          0.8102    1.7672   -0.4152 H         1 <0>         0.0613
     26 H2         -0.8298    1.6966   -1.1035 H         1 <0>         0.0994
     27 H3         -0.6073    1.7603    0.6613 H         1 <0>         0.0535
     28 H4          1.2021    1.2667    1.5849 H         1 <0>         0.1282
     29 H5          2.5581    0.2420    3.3650 H         1 <0>         0.1277
     30 H6          2.7142   -2.2084    3.5398 H         1 <0>         0.1284
     31 H7          1.5163   -3.6390    1.9350 H         1 <0>         0.1319
     32 H8         -0.6014   -2.2459   -0.8295 H         1 <0>         0.0862
     33 H9         -1.5230   -4.4499   -0.0590 H         1 <0>         0.0845
     34 H10        -0.5177   -4.3226    1.4044 H         1 <0>         0.1033
     35 H11        -1.3541   -2.6673    3.2886 H         1 <0>         0.2374
     36 H12        -7.2251   -0.5437   -1.0057 H         1 <0>         0.4491
     37 H13        -7.2762    0.0209    0.5759 H         1 <0>         0.4321
     38 H14        -2.4438   -3.6155   -1.4628 H         1 <0>         0.4292
     39 H15        -3.6946   -3.2045   -2.5065 H         1 <0>         0.4309
     40 H16         1.7564   -4.1537   -0.2728 H         1 <0>         0.1135
     41 H17         0.7364   -2.5170   -2.7461 H         1 <0>         0.0950
     42 H18         2.2646   -3.5475   -2.6832 H         1 <0>         0.0996
     43 H19         0.8622   -5.5951   -2.1588 H         1 <0>         0.1029
     44 H20        -0.6660   -4.5645   -2.2217 H         1 <0>         0.0840
     45 H21        -5.5864   -0.5235    2.0424 H         1 <0>         0.4419
@<TRIPOS>BOND
     1    1    2 1
     2    1   25 1
     3    1   26 1
     4    1   27 1
     5    2    3 1
     6    3    8 ar
     7    3    4 ar
     8    4    5 ar
     9    4   28 1
    10    5    6 ar
    11    5   29 1
    12    6    7 ar
    13    6   30 1
    14    7    8 ar
    15    7   31 1
    16    8    9 1
    17    9   10 1
    18    9   22 1
    19    9   32 1
    20   10   11 1
    21   10   33 1
    22   10   34 1
    23   11   15 1
    24   11   12 2
    25   12   13 1
    26   12   35 1
    27   13   14 1
    28   14   19 ar
    29   14   15 ar
    30   15   16 ar
    31   16   17 ar
    32   16   21 1
    33   17   18 ar
    34   18   19 ar
    35   18   20 1
    36   19   45 1
    37   20   36 1
    38   20   37 1
    39   21   38 1
    40   21   39 1
    41   22   24 1
    42   22   23 1
    43   22   40 1
    44   23   24 1
    45   23   41 1
    46   23   42 1
    47   24   43 1
    48   24   44 1
@<TRIPOS>MOLECULE
CHEMBL603198__1
   44    47     0     0     0
SMALL
USER_CHARGES

@<TRIPOS>ATOM
      1 C1         -0.1715    1.3755    0.3087 C.3       1 <0>         0.0276
      2 O1         -0.1167   -0.0514    0.2542 O.3       1 <0>        -0.3120
      3 C2          0.3743   -0.6069   -0.8847 C.ar      1 <0>         0.1360
      4 C3          0.8001    0.2049   -1.9263 C.ar      1 <0>        -0.2063
      5 C4          1.2991   -0.3621   -3.0827 C.ar      1 <0>        -0.0821
      6 C5          1.3746   -1.7377   -3.2028 C.ar      1 <0>        -0.1551
      7 C6          0.9506   -2.5487   -2.1667 C.ar      1 <0>        -0.0823
      8 C7          0.4559   -1.9863   -1.0057 C.ar      1 <0>        -0.0985
      9 C8         -0.0003   -2.8709    0.1259 C.3       1 <0>        -0.0082
     10 C9          1.1718   -3.7283    0.6075 C.3       1 <0>        -0.0439
     11 C10         2.2382   -2.8384    1.1923 C.2       1 <0>        -0.1182
     12 C11         3.3294   -2.3720    0.5694 C.2       1 <0>        -0.0171
     13 O2          4.0504   -1.6071    1.4110 O.3       1 <0>        -0.1787
     14 C12         3.4657   -1.5385    2.6186 C.ar      1 <0>         0.3661
     15 C13         2.2886   -2.3028    2.5550 C.ar      1 <0>        -0.3279
     16 C14         1.4765   -2.3956    3.6940 C.ar      1 <0>         0.5342
     17 N1          1.8537   -1.7504    4.7939 N.ar      1 <0>        -0.6312
     18 C15         2.9713   -1.0358    4.8142 C.ar      1 <0>         0.6353
     19 N2          3.7675   -0.9304    3.7628 N.ar      1 <0>        -0.5995
     20 N3          3.3222   -0.3818    5.9831 N.pl3     1 <0>        -0.8146
     21 N4          0.3110   -3.1398    3.6740 N.pl3     1 <0>        -0.8252
     22 C16        -1.1307   -3.7797   -0.3611 C.3       1 <0>        -0.1462
     23 C17        -2.5517   -3.4481    0.0991 C.3       1 <0>        -0.1743
     24 C18        -1.8241   -4.6633    0.6779 C.3       1 <0>        -0.1799
     25 H1          0.8331    1.7824    0.1939 H         1 <0>         0.0543
     26 H2         -0.8075    1.7457   -0.4954 H         1 <0>         0.0558
     27 H3         -0.5821    1.6869    1.2692 H         1 <0>         0.0980
     28 H4          0.7410    1.2792   -1.8331 H         1 <0>         0.1257
     29 H5          1.6304    0.2693   -3.8938 H         1 <0>         0.1232
     30 H6          1.7652   -2.1792   -4.1078 H         1 <0>         0.1235
     31 H7          1.0103   -3.6228   -2.2631 H         1 <0>         0.1284
     32 H8         -0.3600   -2.2524    0.9482 H         1 <0>         0.0880
     33 H9          0.8230   -4.4259    1.3688 H         1 <0>         0.0749
     34 H10         1.5845   -4.2851   -0.2339 H         1 <0>         0.0841
     35 H11         3.5923   -2.5796   -0.4574 H         1 <0>         0.2087
     36 H12         2.7547   -0.4511    6.7668 H         1 <0>         0.4173
     37 H13         4.1354    0.1457    6.0184 H         1 <0>         0.4167
     38 H14         0.0467   -3.6055    2.8652 H         1 <0>         0.4110
     39 H15        -0.2422   -3.1960    4.4688 H         1 <0>         0.4091
     40 H16        -1.0083   -4.1852   -1.3654 H         1 <0>         0.1084
     41 H17        -2.6812   -2.5825    0.7488 H         1 <0>         0.0945
     42 H18        -3.3645   -3.6353   -0.6025 H         1 <0>         0.0944
     43 H19        -2.1582   -5.6499    0.3570 H         1 <0>         0.0977
     44 H20        -1.4749   -4.5971    1.7083 H         1 <0>         0.0883
@<TRIPOS>BOND
     1    1    2 1
     2    1   25 1
     3    1   26 1
     4    1   27 1
     5    2    3 1
     6    3    8 ar
     7    3    4 ar
     8    4    5 ar
     9    4   28 1
    10    5    6 ar
    11    5   29 1
    12    6    7 ar
    13    6   30 1
    14    7    8 ar
    15    7   31 1
    16    8    9 1
    17    9   10 1
    18    9   22 1
    19    9   32 1
    20   10   11 1
    21   10   33 1
    22   10   34 1
    23   11   15 1
    24   11   12 2
    25   12   13 1
    26   12   35 1
    27   13   14 1
    28   14   19 ar
    29   14   15 ar
    30   15   16 ar
    31   16   17 ar
    32   16   21 1
    33   17   18 ar
    34   18   19 ar
    35   18   20 1
    36   20   36 1
    37   20   37 1
    38   21   38 1
    39   21   39 1
    40   22   24 1
    41   22   23 1
    42   22   40 1
    43   23   24 1
    44   23   41 1
    45   23   42 1
    46   24   43 1
    47   24   44 1
@<TRIPOS>MOLECULE
CHEMBL603198__2
   45    48     0     0     0
SMALL
USER_CHARGES

@<TRIPOS>ATOM
      1 C1         -0.0173    1.4248    0.0099 C.3       1 <0>         0.0238
      2 O1          0.0021   -0.0041    0.0020 O.3       1 <0>        -0.3224
      3 C2          0.6258   -0.6184    1.0415 C.ar      1 <0>         0.1267
      4 C3          1.2023    0.1385    2.0514 C.ar      1 <0>        -0.2029
      5 C4          1.8353   -0.4882    3.1070 C.ar      1 <0>        -0.0749
      6 C5          1.8947   -1.8689    3.1579 C.ar      1 <0>        -0.1497
      7 C6          1.3214   -2.6252    2.1527 C.ar      1 <0>        -0.0717
      8 C7          0.6822   -2.0032    1.0975 C.ar      1 <0>        -0.1174
      9 C8          0.0521   -2.8284    0.0053 C.3       1 <0>        -0.0055
     10 C9          1.1230   -3.6930   -0.6629 C.3       1 <0>        -0.0554
     11 C10         0.5190   -4.4256   -1.8332 C.2       1 <0>        -0.0979
     12 C11         0.0169   -5.6683   -1.8339 C.2       1 <0>         0.0207
     13 O2         -0.4348   -5.9834   -3.0626 O.3       1 <0>        -0.1464
     14 C12        -0.2494   -4.9648   -3.9188 C.ar      1 <0>         0.3202
     15 C13         0.3559   -3.9213   -3.1990 C.ar      1 <0>        -0.2611
     16 C14         0.6571   -2.7237   -3.8628 C.ar      1 <0>         0.5789
     17 N1          0.3532   -2.6222   -5.1534 N.ar      1 <0>        -0.5780
     18 C15        -0.2211   -3.6293   -5.7984 C.ar      1 <0>         0.6973
     19 N2         -0.5136   -4.7772   -5.2091 N.ar      1 <0>        -0.5524
     20 N3         -0.5185   -3.4761   -7.1421 N.pl3     1 <0>        -0.7839
     21 N4          1.2553   -1.6730   -3.1914 N.pl3     1 <0>        -0.7650
     22 C16        -1.0290   -3.7292    0.6059 C.3       1 <0>        -0.1514
     23 C17        -2.4139   -3.7003   -0.0438 C.3       1 <0>        -0.1781
     24 C18        -2.1967   -3.0492    1.3236 C.3       1 <0>        -0.1654
     25 H1          1.0053    1.8021    0.0021 H         1 <0>         0.0584
     26 H2         -0.5445    1.7859   -0.8732 H         1 <0>         0.1012
     27 H3         -0.5275    1.7763    0.9067 H         1 <0>         0.0595
     28 H4          1.1565    1.2168    2.0119 H         1 <0>         0.1299
     29 H5          2.2845    0.1005    3.8932 H         1 <0>         0.1279
     30 H6          2.3900   -2.3570    3.9842 H         1 <0>         0.1275
     31 H7          1.3695   -3.7034    2.1946 H         1 <0>         0.1289
     32 H8         -0.3964   -2.1677   -0.7365 H         1 <0>         0.0872
     33 H9          1.9367   -3.0577   -1.0127 H         1 <0>         0.0815
     34 H10         1.5091   -4.4144    0.0572 H         1 <0>         0.1024
     35 H11        -0.0197   -6.3215   -0.9746 H         1 <0>         0.2391
     36 H12        -0.3068   -2.6443   -7.5939 H         1 <0>         0.4489
     37 H13        -0.9384   -4.2007   -7.6316 H         1 <0>         0.4322
     38 H14         1.4717   -1.7595   -2.2498 H         1 <0>         0.4322
     39 H15         1.4586   -0.8495   -3.6621 H         1 <0>         0.4301
     40 H16        -0.6794   -4.6817    1.0042 H         1 <0>         0.1085
     41 H17        -2.5548   -3.0395   -0.8992 H         1 <0>         0.0877
     42 H18        -2.9756   -4.6340   -0.0732 H         1 <0>         0.0949
     43 H19        -2.6156   -3.5546    2.1938 H         1 <0>         0.0974
     44 H20        -2.1947   -1.9602    1.3678 H         1 <0>         0.0945
     45 H21        -0.9348   -5.4856   -5.7206 H         1 <0>         0.4421
@<TRIPOS>BOND
     1    1    2 1
     2    1   25 1
     3    1   26 1
     4    1   27 1
     5    2    3 1
     6    3    8 ar
     7    3    4 ar
     8    4    5 ar
     9    4   28 1
    10    5    6 ar
    11    5   29 1
    12    6    7 ar
    13    6   30 1
    14    7    8 ar
    15    7   31 1
    16    8    9 1
    17    9   10 1
    18    9   22 1
    19    9   32 1
    20   10   11 1
    21   10   33 1
    22   10   34 1
    23   11   15 1
    24   11   12 2
    25   12   13 1
    26   12   35 1
    27   13   14 1
    28   14   19 ar
    29   14   15 ar
    30   15   16 ar
    31   16   17 ar
    32   16   21 1
    33   17   18 ar
    34   18   19 ar
    35   18   20 1
    36   19   45 1
    37   20   36 1
    38   20   37 1
    39   21   38 1
    40   21   39 1
    41   22   24 1
    42   22   23 1
    43   22   40 1
    44   23   24 1
    45   23   41 1
    46   23   42 1
    47   24   43 1
    48   24   44 1
@<TRIPOS>MOLECULE
CHEMBL603198__3
   44    47     0     0     0
SMALL
USER_CHARGES

@<TRIPOS>ATOM
      1 C1         -0.0173    1.4248    0.0099 C.3       1 <0>         0.0260
      2 O1          0.0021   -0.0041    0.0020 O.3       1 <0>        -0.3147
      3 C2          0.6058   -0.6071   -1.0557 C.ar      1 <0>         0.1275
      4 C3          1.1731    0.1608   -2.0626 C.ar      1 <0>        -0.2063
      5 C4          1.7865   -0.4545   -3.1363 C.ar      1 <0>        -0.0825
      6 C5          1.8356   -1.8347   -3.2084 C.ar      1 <0>        -0.1538
      7 C6          1.2707   -2.6020   -2.2067 C.ar      1 <0>        -0.0726
      8 C7          0.6609   -1.9913   -1.1277 C.ar      1 <0>        -0.1053
      9 C8          0.0508   -2.8283   -0.0330 C.3       1 <0>        -0.0072
     10 C9         -1.0412   -3.7226   -0.6234 C.3       1 <0>        -0.0424
     11 C10        -1.7342   -4.4689    0.4874 C.2       1 <0>        -0.1174
     12 C11        -1.4527   -5.7034    0.9268 C.2       1 <0>        -0.0174
     13 O2         -2.2830   -6.0360    1.9335 O.3       1 <0>        -0.1783
     14 C12        -3.1424   -5.0377    2.1974 C.ar      1 <0>         0.3676
     15 C13        -2.8479   -3.9895    1.3096 C.ar      1 <0>        -0.3327
     16 C14        -3.6032   -2.8103    1.3765 C.ar      1 <0>         0.5338
     17 N1         -4.5713   -2.7299    2.2845 N.ar      1 <0>        -0.6322
     18 C15        -4.8175   -3.7407    3.1079 C.ar      1 <0>         0.6362
     19 N2         -4.1323   -4.8718    3.0706 N.ar      1 <0>        -0.6003
     20 N3         -5.8362   -3.6097    4.0367 N.pl3     1 <0>        -0.8143
     21 N4         -3.3472   -1.7558    0.5190 N.pl3     1 <0>        -0.8218
     22 C16         1.1337   -3.6999    0.6061 C.3       1 <0>        -0.1409
     23 C17         1.2625   -3.6624    2.1302 C.3       1 <0>        -0.1717
     24 C18         2.3215   -2.9876    1.2562 C.3       1 <0>        -0.1737
     25 H1          1.0053    1.8021    0.0021 H         1 <0>         0.0555
     26 H2         -0.5445    1.7859   -0.8732 H         1 <0>         0.0559
     27 H3         -0.5275    1.7763    0.9067 H         1 <0>         0.1002
     28 H4          1.1347    1.2387   -2.0069 H         1 <0>         0.1268
     29 H5          2.2279    0.1427   -3.9204 H         1 <0>         0.1235
     30 H6          2.3157   -2.3139   -4.0487 H         1 <0>         0.1237
     31 H7          1.3100   -3.6796   -2.2654 H         1 <0>         0.1282
     32 H8         -0.3839   -2.1755    0.7240 H         1 <0>         0.0889
     33 H9         -1.7666   -3.1072   -1.1555 H         1 <0>         0.0719
     34 H10        -0.5925   -4.4354   -1.3153 H         1 <0>         0.0836
     35 H11        -0.6740   -6.3387    0.5312 H         1 <0>         0.2104
     36 H12        -6.3540   -2.7905    4.0764 H         1 <0>         0.4173
     37 H13        -6.0319   -4.3373    4.6476 H         1 <0>         0.4169
     38 H14        -2.6379   -1.8268   -0.1388 H         1 <0>         0.4136
     39 H15        -3.8770   -0.9452    0.5754 H         1 <0>         0.4083
     40 H16         1.3278   -4.6496    0.1075 H         1 <0>         0.1045
     41 H17         0.5757   -3.0168    2.6776 H         1 <0>         0.0897
     42 H18         1.5412   -4.5876    2.6347 H         1 <0>         0.0929
     43 H19         3.2970   -3.4688    1.1856 H         1 <0>         0.0922
     44 H20         2.3315   -1.8980    1.2285 H         1 <0>         0.0907
@<TRIPOS>BOND
     1    1    2 1
     2    1   25 1
     3    1   26 1
     4    1   27 1
     5    2    3 1
     6    3    8 ar
     7    3    4 ar
     8    4    5 ar
     9    4   28 1
    10    5    6 ar
    11    5   29 1
    12    6    7 ar
    13    6   30 1
    14    7    8 ar
    15    7   31 1
    16    8    9 1
    17    9   10 1
    18    9   22 1
    19    9   32 1
    20   10   11 1
    21   10   33 1
    22   10   34 1
    23   11   15 1
    24   11   12 2
    25   12   13 1
    26   12   35 1
    27   13   14 1
    28   14   19 ar
    29   14   15 ar
    30   15   16 ar
    31   16   17 ar
    32   16   21 1
    33   17   18 ar
    34   18   19 ar
    35   18   20 1
    36   20   36 1
    37   20   37 1
    38   21   38 1
    39   21   39 1
    40   22   24 1
    41   22   23 1
    42   22   40 1
    43   23   24 1
    44   23   41 1
    45   23   42 1
    46   24   43 1
    47   24   44 1
@<TRIPOS>MOLECULE
CHEMBL134561
   48    51     0     0     0
SMALL
USER_CHARGES

@<TRIPOS>ATOM
      1 C1         -1.2134    2.0352   -0.1384 C.3       1 <0>         0.0228
      2 O1         -0.9346    0.6342   -0.0979 O.3       1 <0>        -0.3000
      3 C2         -1.9999   -0.2044    0.0030 C.ar      1 <0>         0.1522
      4 C3         -3.2858    0.3164    0.0558 C.ar      1 <0>        -0.2262
      5 C4         -4.3749   -0.5262    0.1577 C.ar      1 <0>         0.0060
      6 C5         -4.1789   -1.9028    0.2077 C.ar      1 <0>        -0.1476
      7 C6         -2.8818   -2.4322    0.1548 C.ar      1 <0>         0.1643
      8 C7         -1.7955   -1.5803    0.0471 C.ar      1 <0>         0.0293
      9 O2         -0.5333   -2.0861   -0.0102 O.3       1 <0>        -0.3121
     10 C8         -0.0111   -2.3817   -1.3071 C.3       1 <0>         0.0349
     11 O3         -2.7212   -3.7803    0.2059 O.3       1 <0>        -0.2934
     12 C9         -3.6522   -4.5163    1.0005 C.3       1 <0>         0.1554
     13 C10        -5.0636   -4.0932    0.6897 C.2       1 <0>        -0.1890
     14 C11        -5.3170   -2.8406    0.3162 C.2       1 <0>        -0.0873
     15 C12        -3.3637   -4.2619    2.4813 C.3       1 <0>        -0.1889
     16 C13        -2.2408   -3.2807    2.8239 C.3       1 <0>        -0.1760
     17 C14        -2.0384   -4.7815    3.0423 C.3       1 <0>        -0.1664
     18 C15        -5.7693    0.0424    0.2152 C.3       1 <0>        -0.0171
     19 C16        -6.1968    0.1801    1.6537 C.ar      1 <0>        -0.3066
     20 C17        -6.9308   -0.8141    2.2707 C.ar      1 <0>         0.2266
     21 N1         -7.2909   -0.6632    3.5367 N.ar      1 <0>        -0.6028
     22 C18        -6.9568    0.4251    4.2147 C.ar      1 <0>         0.6031
     23 N2         -6.2543    1.4011    3.6598 N.ar      1 <0>        -0.6261
     24 C19        -5.8549    1.3131    2.3950 C.ar      1 <0>         0.4897
     25 N3         -5.1152    2.3330    1.8189 N.pl3     1 <0>        -0.8357
     26 N4         -7.3521    0.5451    5.5355 N.pl3     1 <0>        -0.8211
     27 H1         -0.2784    2.5895   -0.2194 H         1 <0>         0.1045
     28 H2         -1.8424    2.2557   -1.0008 H         1 <0>         0.0579
     29 H3         -1.7319    2.3290    0.7743 H         1 <0>         0.0572
     30 H4         -3.4349    1.3853    0.0172 H         1 <0>         0.1304
     31 H5          0.9695   -2.8468   -1.2066 H         1 <0>         0.0932
     32 H6         -0.6858   -3.0645   -1.8235 H         1 <0>         0.0456
     33 H7          0.0813   -1.4593   -1.8805 H         1 <0>         0.0448
     34 H8         -3.5414   -5.5803    0.7909 H         1 <0>         0.1275
     35 H9         -5.8708   -4.8063    0.7697 H         1 <0>         0.1354
     36 H10        -6.3248   -2.5186    0.0992 H         1 <0>         0.1343
     37 H11        -4.2319   -4.2836    3.1399 H         1 <0>         0.1139
     38 H12        -1.7077   -2.8164    1.9943 H         1 <0>         0.1127
     39 H13        -2.3703   -2.6564    3.7080 H         1 <0>         0.0888
     40 H14        -2.0347   -5.1445    4.0700 H         1 <0>         0.0943
     41 H15        -1.3720   -5.3045    2.3563 H         1 <0>         0.0980
     42 H16        -5.7822    1.0219   -0.2630 H         1 <0>         0.0781
     43 H17        -6.4557   -0.6252   -0.3055 H         1 <0>         0.0915
     44 H18        -7.2085   -1.7049    1.7268 H         1 <0>         0.1609
     45 H19        -4.8309    2.2632    0.8942 H         1 <0>         0.4075
     46 H20        -4.8816    3.1168    2.3403 H         1 <0>         0.4067
     47 H21        -7.8673   -0.1625    5.9538 H         1 <0>         0.4154
     48 H22        -7.1141    1.3367    6.0431 H         1 <0>         0.4131
@<TRIPOS>BOND
     1    1    2 1
     2    1   27 1
     3    1   28 1
     4    1   29 1
     5    2    3 1
     6    3    8 ar
     7    3    4 ar
     8    4    5 ar
     9    4   30 1
    10    5    6 ar
    11    5   18 1
    12    6   14 1
    13    6    7 ar
    14    7    8 ar
    15    7   11 1
    16    8    9 1
    17    9   10 1
    18   10   31 1
    19   10   32 1
    20   10   33 1
    21   11   12 1
    22   12   13 1
    23   12   15 1
    24   12   34 1
    25   13   14 2
    26   13   35 1
    27   14   36 1
    28   15   17 1
    29   15   16 1
    30   15   37 1
    31   16   17 1
    32   16   38 1
    33   16   39 1
    34   17   40 1
    35   17   41 1
    36   18   19 1
    37   18   42 1
    38   18   43 1
    39   19   24 ar
    40   19   20 ar
    41   20   21 ar
    42   20   44 1
    43   21   22 ar
    44   22   23 ar
    45   22   26 1
    46   23   24 ar
    47   24   25 1
    48   25   45 1
    49   25   46 1
    50   26   47 1
    51   26   48 1
@<TRIPOS>MOLECULE
CHEMBL134561__1
   49    52     0     0     0
SMALL
USER_CHARGES

@<TRIPOS>ATOM
      1 C1          0.6993    2.0655   -0.9394 C.3       1 <0>         0.0210
      2 O1          0.5467    0.6579   -0.7462 O.3       1 <0>        -0.2941
      3 C2          1.0048   -0.1541   -1.7358 C.ar      1 <0>         0.1578
      4 C3          1.5936    0.3986   -2.8652 C.ar      1 <0>        -0.2267
      5 C4          2.0626   -0.4167   -3.8759 C.ar      1 <0>        -0.0209
      6 C5          1.9428   -1.7980   -3.7587 C.ar      1 <0>        -0.1446
      7 C6          1.3487   -2.3596   -2.6199 C.ar      1 <0>         0.1668
      8 C7          0.8859   -1.5348   -1.6084 C.ar      1 <0>         0.0437
      9 O2          0.3127   -2.0719   -0.4970 O.3       1 <0>        -0.3124
     10 C8          1.1795   -2.3760    0.5976 C.3       1 <0>         0.0343
     11 O3          1.2452   -3.7114   -2.5333 O.3       1 <0>        -0.2874
     12 C9          1.0338   -4.4267   -3.7513 C.3       1 <0>         0.1495
     13 C10         2.0017   -3.9672   -4.8095 C.2       1 <0>        -0.1694
     14 C11         2.4322   -2.7072   -4.8172 C.2       1 <0>        -0.1113
     15 C12        -0.3969   -4.1848   -4.2368 C.3       1 <0>        -0.1925
     16 C13        -1.2699   -3.2332   -3.4162 C.3       1 <0>        -0.1785
     17 C14        -1.5368   -4.7393   -3.3801 C.3       1 <0>        -0.1614
     18 C15         2.7008    0.1866   -5.1006 C.3       1 <0>        -0.0305
     19 C16         1.6665    0.3299   -6.1872 C.ar      1 <0>        -0.2199
     20 C17         1.5145   -0.6478   -7.1510 C.ar      1 <0>         0.2092
     21 N1          0.5956   -0.4922   -8.0928 N.ar      1 <0>        -0.5687
     22 C18        -0.1752    0.5851   -8.1209 C.ar      1 <0>         0.6626
     23 N2         -0.0608    1.5451   -7.2158 N.ar      1 <0>        -0.5713
     24 C19         0.8360    1.4513   -6.2391 C.ar      1 <0>         0.5381
     25 N3          0.9494    2.4543   -5.2903 N.pl3     1 <0>        -0.7785
     26 N4         -1.1231    0.7105   -9.1214 N.pl3     1 <0>        -0.7909
     27 H1          1.7571    2.3048   -1.0485 H         1 <0>         0.0609
     28 H2          0.1635    2.3690   -1.8388 H         1 <0>         0.0553
     29 H3          0.2936    2.5965   -0.0782 H         1 <0>         0.1107
     30 H4          1.6848    1.4711   -2.9536 H         1 <0>         0.1306
     31 H5          1.6155   -1.4543    0.9827 H         1 <0>         0.0487
     32 H6          0.6096   -2.8660    1.3871 H         1 <0>         0.0994
     33 H7          1.9745   -3.0398    0.2579 H         1 <0>         0.0485
     34 H8          1.1765   -5.4923   -3.5719 H         1 <0>         0.1336
     35 H9          2.3468   -4.6600   -5.5626 H         1 <0>         0.1395
     36 H10         3.1188   -2.3593   -5.5748 H         1 <0>         0.1328
     37 H11        -0.5330   -4.1869   -5.3182 H         1 <0>         0.1113
     38 H12        -0.8251   -2.7796   -2.5306 H         1 <0>         0.1130
     39 H13        -1.9806   -2.6090   -3.9579 H         1 <0>         0.0887
     40 H14        -2.4231   -5.1060   -3.8980 H         1 <0>         0.0981
     41 H15        -1.2676   -5.2765   -2.4707 H         1 <0>         0.1024
     42 H16         3.1062    1.1677   -4.8531 H         1 <0>         0.1007
     43 H17         3.5052   -0.4618   -5.4479 H         1 <0>         0.1135
     44 H18         2.1382   -1.5294   -7.1374 H         1 <0>         0.2111
     45 H19         1.6093    2.3807   -4.5831 H         1 <0>         0.4273
     46 H20         0.3689    3.2302   -5.3330 H         1 <0>         0.4290
     47 H21        -1.2169    0.0147   -9.7907 H         1 <0>         0.4309
     48 H22        -1.6937    1.4943   -9.1534 H         1 <0>         0.4452
     49 H23         0.4858   -1.1766   -8.7714 H         1 <0>         0.4449
@<TRIPOS>BOND
     1    1    2 1
     2    1   27 1
     3    1   28 1
     4    1   29 1
     5    2    3 1
     6    3    8 ar
     7    3    4 ar
     8    4    5 ar
     9    4   30 1
    10    5    6 ar
    11    5   18 1
    12    6   14 1
    13    6    7 ar
    14    7    8 ar
    15    7   11 1
    16    8    9 1
    17    9   10 1
    18   10   31 1
    19   10   32 1
    20   10   33 1
    21   11   12 1
    22   12   13 1
    23   12   15 1
    24   12   34 1
    25   13   14 2
    26   13   35 1
    27   14   36 1
    28   15   17 1
    29   15   16 1
    30   15   37 1
    31   16   17 1
    32   16   38 1
    33   16   39 1
    34   17   40 1
    35   17   41 1
    36   18   19 1
    37   18   42 1
    38   18   43 1
    39   19   24 ar
    40   19   20 ar
    41   20   21 ar
    42   20   44 1
    43   21   22 ar
    44   21   49 1
    45   22   23 ar
    46   22   26 1
    47   23   24 ar
    48   24   25 1
    49   25   45 1
    50   25   46 1
    51   26   47 1
    52   26   48 1
@<TRIPOS>MOLECULE
CHEMBL134561__2
   48    51     0     0     0
SMALL
USER_CHARGES

@<TRIPOS>ATOM
      1 C1         -0.1329    1.7792    0.4555 C.3       1 <0>         0.0228
      2 O1          0.0017    0.3627    0.3229 O.3       1 <0>        -0.3001
      3 C2         -1.1444   -0.3564    0.1895 C.ar      1 <0>         0.1513
      4 C3         -2.3707    0.2946    0.1813 C.ar      1 <0>        -0.2256
      5 C4         -3.5408   -0.4259    0.0456 C.ar      1 <0>         0.0047
      6 C5         -3.4867   -1.8103   -0.0828 C.ar      1 <0>        -0.1510
      7 C6         -2.2503   -2.4709   -0.0747 C.ar      1 <0>         0.1618
      8 C7         -1.0814   -1.7403    0.0563 C.ar      1 <0>         0.0346
      9 O2          0.1235   -2.3731    0.0598 O.3       1 <0>        -0.3106
     10 C8          0.6285   -2.7998    1.3267 C.3       1 <0>         0.0348
     11 O3         -2.2286   -3.8233   -0.2023 O.3       1 <0>        -0.2902
     12 C9         -3.2347   -4.4149   -1.0254 C.3       1 <0>         0.1560
     13 C10        -4.5936   -3.8687   -0.6750 C.2       1 <0>        -0.1871
     14 C11        -4.7154   -2.6198   -0.2298 C.2       1 <0>        -0.0901
     15 C12        -2.9307   -4.1082   -2.4932 C.3       1 <0>        -0.1890
     16 C13        -2.9051   -5.2853   -3.4703 C.3       1 <0>        -0.1679
     17 C14        -1.5982   -4.6052   -3.0574 C.3       1 <0>        -0.1593
     18 C15        -4.8701    0.2839    0.0372 C.3       1 <0>        -0.0175
     19 C16        -5.4166    0.3437    1.4404 C.ar      1 <0>        -0.3066
     20 C17        -6.2985   -0.6166    1.8964 C.ar      1 <0>         0.2233
     21 N1         -6.7606   -0.5361    3.1355 N.ar      1 <0>        -0.6027
     22 C18        -6.3883    0.4499    3.9385 C.ar      1 <0>         0.6032
     23 N2         -5.5452    1.3902    3.5396 N.ar      1 <0>        -0.6257
     24 C19        -5.0382    1.3678    2.3110 C.ar      1 <0>         0.4897
     25 N3         -4.1521    2.3495    1.8984 N.pl3     1 <0>        -0.8358
     26 N4         -6.8935    0.4987    5.2260 N.pl3     1 <0>        -0.8206
     27 H1          0.8545    2.2303    0.5537 H         1 <0>         0.1045
     28 H2         -0.6298    2.1812   -0.4275 H         1 <0>         0.0586
     29 H3         -0.7260    2.0064    1.3413 H         1 <0>         0.0562
     30 H4         -2.4096    1.3692    0.2811 H         1 <0>         0.1302
     31 H5          1.5929   -3.2883    1.1876 H         1 <0>         0.0935
     32 H6          0.7499   -1.9352    1.9793 H         1 <0>         0.0433
     33 H7         -0.0721   -3.5013    1.7795 H         1 <0>         0.0451
     34 H8         -3.2319   -5.4947   -0.8764 H         1 <0>         0.1229
     35 H9         -5.4698   -4.4904   -0.7849 H         1 <0>         0.1352
     36 H10        -5.6836   -2.2100    0.0173 H         1 <0>         0.1332
     37 H11        -3.3095   -3.1552   -2.8625 H         1 <0>         0.1070
     38 H12        -3.1048   -6.2782   -3.0674 H         1 <0>         0.0973
     39 H13        -3.2673   -5.1069   -4.4827 H         1 <0>         0.0977
     40 H14        -1.1006   -3.9794   -3.7983 H         1 <0>         0.0960
     41 H15        -0.9382   -5.1507   -2.3830 H         1 <0>         0.1002
     42 H16        -4.7391    1.2962   -0.3451 H         1 <0>         0.0790
     43 H17        -5.5675   -0.2583   -0.6015 H         1 <0>         0.0919
     44 H18        -6.6085   -1.4241    1.2497 H         1 <0>         0.1617
     45 H19        -3.7896    2.3286    0.9989 H         1 <0>         0.4079
     46 H20        -3.8941    3.0576    2.5090 H         1 <0>         0.4069
     47 H21        -7.5120   -0.1836    5.5306 H         1 <0>         0.4157
     48 H22        -6.6290    1.2153    5.8240 H         1 <0>         0.4133
@<TRIPOS>BOND
     1    1    2 1
     2    1   27 1
     3    1   28 1
     4    1   29 1
     5    2    3 1
     6    3    8 ar
     7    3    4 ar
     8    4    5 ar
     9    4   30 1
    10    5    6 ar
    11    5   18 1
    12    6   14 1
    13    6    7 ar
    14    7    8 ar
    15    7   11 1
    16    8    9 1
    17    9   10 1
    18   10   31 1
    19   10   32 1
    20   10   33 1
    21   11   12 1
    22   12   13 1
    23   12   15 1
    24   12   34 1
    25   13   14 2
    26   13   35 1
    27   14   36 1
    28   15   17 1
    29   15   16 1
    30   15   37 1
    31   16   17 1
    32   16   38 1
    33   16   39 1
    34   17   40 1
    35   17   41 1
    36   18   19 1
    37   18   42 1
    38   18   43 1
    39   19   24 ar
    40   19   20 ar
    41   20   21 ar
    42   20   44 1
    43   21   22 ar
    44   22   23 ar
    45   22   26 1
    46   23   24 ar
    47   24   25 1
    48   25   45 1
    49   25   46 1
    50   26   47 1
    51   26   48 1
@<TRIPOS>MOLECULE
CHEMBL134561__3
   49    52     0     0     0
SMALL
USER_CHARGES

@<TRIPOS>ATOM
      1 C1         -0.3510    1.7804   -0.3059 C.3       1 <0>         0.0213
      2 O1         -0.2813    0.3615   -0.1514 O.3       1 <0>        -0.2945
      3 C2          0.4181   -0.3282   -1.0914 C.ar      1 <0>         0.1557
      4 C3          1.0279    0.3534   -2.1361 C.ar      1 <0>        -0.2264
      5 C4          1.7413   -0.3370   -3.0957 C.ar      1 <0>        -0.0236
      6 C5          1.8471   -1.7218   -3.0124 C.ar      1 <0>        -0.1456
      7 C6          1.2325   -2.4133   -1.9591 C.ar      1 <0>         0.1632
      8 C7          0.5236   -1.7127   -0.9979 C.ar      1 <0>         0.0502
      9 O2         -0.0717   -2.3756    0.0309 O.3       1 <0>        -0.3090
     10 C8         -1.4146   -2.8193   -0.1738 C.3       1 <0>         0.0352
     11 O3          1.3532   -3.7653   -1.9035 O.3       1 <0>        -0.2863
     12 C9          2.5781   -4.3287   -2.3750 C.3       1 <0>         0.1510
     13 C10         2.9452   -3.7497   -3.7158 C.2       1 <0>        -0.1589
     14 C11         2.6010   -2.4997   -4.0189 C.2       1 <0>        -0.1146
     15 C12         3.6925   -4.0245   -1.3718 C.3       1 <0>        -0.1958
     16 C13         4.5443   -5.1985   -0.8846 C.3       1 <0>        -0.1651
     17 C14         3.5231   -4.5528    0.0541 C.3       1 <0>        -0.1569
     18 C15         2.4019    0.4060   -4.2283 C.3       1 <0>        -0.0308
     19 C16         1.4588    0.4746   -5.4017 C.ar      1 <0>        -0.2198
     20 C17         1.5195   -0.4648   -6.4126 C.ar      1 <0>         0.2059
     21 N1          0.6761   -0.3771   -7.4305 N.ar      1 <0>        -0.5685
     22 C18        -0.2204    0.5967   -7.4901 C.ar      1 <0>         0.6625
     23 N2         -0.3109    1.5169   -6.5419 N.ar      1 <0>        -0.5712
     24 C19         0.4998    1.4858   -5.4889 C.ar      1 <0>         0.5379
     25 N3          0.3990    2.4464   -4.4958 N.pl3     1 <0>        -0.7786
     26 N4         -1.0836    0.6539   -8.5704 N.pl3     1 <0>        -0.7904
     27 H1          0.6558    2.1978   -0.2867 H         1 <0>         0.0614
     28 H2         -0.8253    2.0194   -1.2577 H         1 <0>         0.0539
     29 H3         -0.9365    2.2063    0.5089 H         1 <0>         0.1106
     30 H4          0.9441    1.4284   -2.1981 H         1 <0>         0.1294
     31 H5         -1.4457   -3.5046   -1.0208 H         1 <0>         0.0465
     32 H6         -1.7685   -3.3313    0.7210 H         1 <0>         0.0995
     33 H7         -2.0539   -1.9603   -0.3777 H         1 <0>         0.0453
     34 H8          2.4645   -5.4087   -2.4687 H         1 <0>         0.1293
     35 H9          3.4879   -4.3488   -4.4319 H         1 <0>         0.1396
     36 H10         2.8645   -2.0666   -4.9725 H         1 <0>         0.1242
     37 H11         4.1869   -3.0611   -1.4961 H         1 <0>         0.1073
     38 H12         4.3107   -6.1875   -1.2789 H         1 <0>         0.0995
     39 H13         5.5993   -5.0075   -0.6885 H         1 <0>         0.1008
     40 H14         3.9063   -3.9371    0.8678 H         1 <0>         0.0989
     41 H15         2.6176   -5.1171    0.2774 H         1 <0>         0.1020
     42 H16         2.6518    1.4160   -3.9035 H         1 <0>         0.1012
     43 H17         3.3119   -0.1163   -4.5236 H         1 <0>         0.1136
     44 H18         2.2471   -1.2621   -6.3737 H         1 <0>         0.2114
     45 H19         0.9972    2.4196   -3.7326 H         1 <0>         0.4276
     46 H20        -0.2697    3.1457   -4.5635 H         1 <0>         0.4290
     47 H21        -1.0276   -0.0138   -9.2719 H         1 <0>         0.4312
     48 H22        -1.7445    1.3617   -8.6262 H         1 <0>         0.4453
     49 H23         0.7156   -1.0349   -8.1423 H         1 <0>         0.4454
@<TRIPOS>BOND
     1    1    2 1
     2    1   27 1
     3    1   28 1
     4    1   29 1
     5    2    3 1
     6    3    8 ar
     7    3    4 ar
     8    4    5 ar
     9    4   30 1
    10    5    6 ar
    11    5   18 1
    12    6   14 1
    13    6    7 ar
    14    7    8 ar
    15    7   11 1
    16    8    9 1
    17    9   10 1
    18   10   31 1
    19   10   32 1
    20   10   33 1
    21   11   12 1
    22   12   13 1
    23   12   15 1
    24   12   34 1
    25   13   14 2
    26   13   35 1
    27   14   36 1
    28   15   17 1
    29   15   16 1
    30   15   37 1
    31   16   17 1
    32   16   38 1
    33   16   39 1
    34   17   40 1
    35   17   41 1
    36   18   19 1
    37   18   42 1
    38   18   43 1
    39   19   24 ar
    40   19   20 ar
    41   20   21 ar
    42   20   44 1
    43   21   22 ar
    44   21   49 1
    45   22   23 ar
    46   22   26 1
    47   23   24 ar
    48   24   25 1
    49   25   45 1
    50   25   46 1
    51   26   47 1
    52   26   48 1
@<TRIPOS>MOLECULE
CHEMBL35437
   49    51     0     0     0
SMALL
USER_CHARGES

@<TRIPOS>ATOM
      1 C1         -0.0173    1.4248    0.0099 C.3       1 <0>         0.0259
      2 O1          0.0021   -0.0041    0.0020 O.3       1 <0>        -0.3096
      3 C2          0.6056   -0.6069   -1.0554 C.ar      1 <0>         0.1403
      4 C3          1.1724    0.1645   -2.0616 C.ar      1 <0>        -0.2050
      5 C4          1.7856   -0.4434   -3.1360 C.ar      1 <0>        -0.0628
      6 C5          1.8365   -1.8364   -3.2119 C.ar      1 <0>        -0.0069
      7 C6          1.2657   -2.6081   -2.1988 C.ar      1 <0>        -0.0533
      8 C7          0.6591   -1.9926   -1.1245 C.ar      1 <0>        -0.1062
      9 C8          0.0483   -2.8249   -0.0267 C.3       1 <0>        -0.0067
     10 C9         -1.4223   -3.0120   -0.2972 C.ar      1 <0>        -0.3036
     11 C10        -2.3578   -2.1693    0.2708 C.ar      1 <0>         0.2259
     12 N1         -3.6433   -2.3600    0.0129 N.ar      1 <0>        -0.6127
     13 C11        -4.0401   -3.3449   -0.7797 C.ar      1 <0>         0.5980
     14 N2         -3.1752   -4.1746   -1.3433 N.ar      1 <0>        -0.6283
     15 C12        -1.8699   -4.0377   -1.1324 C.ar      1 <0>         0.4887
     16 N3         -0.9672   -4.9035   -1.7279 N.pl3     1 <0>        -0.8288
     17 N4         -5.3920   -3.5110   -1.0244 N.pl3     1 <0>        -0.8255
     18 C13         2.4722   -2.4718   -4.3267 C.1       1 <0>        -0.1201
     19 C14         2.9934   -2.9927   -5.2406 C.1       1 <0>        -0.1399
     20 C15         3.6469   -3.6459   -6.3865 C.3       1 <0>         0.1654
     21 O2          3.5686   -5.0646   -6.2344 O.3       1 <0>        -0.2587
     22 C16         4.1271   -5.8203   -7.2120 C.ar      1 <0>         0.1552
     23 C17         4.7448   -5.2130   -8.2954 C.ar      1 <0>        -0.2337
     24 C18         5.3134   -5.9836   -9.2895 C.ar      1 <0>        -0.0897
     25 C19         5.2724   -7.3670   -9.2153 C.ar      1 <0>        -0.1775
     26 C20         4.6638   -7.9883   -8.1476 C.ar      1 <0>        -0.0495
     27 C21         4.0883   -7.2205   -7.1297 C.ar      1 <0>        -0.1644
     28 C22         3.4410   -7.8771   -5.9827 C.2       1 <0>         0.5213
     29 O3          3.4094   -9.0982   -5.9148 O.co2     1 <0>        -0.6955
     30 O4          2.9346   -7.2019   -5.0971 O.co2     1 <0>        -0.6676
     31 H1          1.0053    1.8021    0.0021 H         1 <0>         0.0552
     32 H2         -0.5445    1.7859   -0.8732 H         1 <0>         0.0546
     33 H3         -0.5275    1.7763    0.9067 H         1 <0>         0.1004
     34 H4          1.1324    1.2421   -2.0023 H         1 <0>         0.1321
     35 H5          2.2259    0.1572   -3.9182 H         1 <0>         0.1282
     36 H6          1.3027   -3.6861   -2.2542 H         1 <0>         0.1333
     37 H7          0.5383   -3.7980    0.0069 H         1 <0>         0.0759
     38 H8          0.1803   -2.3185    0.9295 H         1 <0>         0.0899
     39 H9         -2.0448   -1.3638    0.9186 H         1 <0>         0.1640
     40 H10        -0.0164   -4.7997   -1.5659 H         1 <0>         0.4118
     41 H11        -1.2858   -5.6136   -2.3069 H         1 <0>         0.4103
     42 H12        -6.0359   -2.9103   -0.6176 H         1 <0>         0.4120
     43 H13        -5.6957   -4.2280   -1.6028 H         1 <0>         0.4115
     44 H14         3.1446   -3.3510   -7.3078 H         1 <0>         0.0816
     45 H15         4.6929   -3.3423   -6.4298 H         1 <0>         0.0821
     46 H16         4.7806   -4.1356   -8.3614 H         1 <0>         0.1199
     47 H17         5.7931   -5.5054  -10.1308 H         1 <0>         0.1148
     48 H18         5.7198   -7.9606   -9.9988 H         1 <0>         0.1152
     49 H19         4.6341   -9.0665   -8.0944 H         1 <0>         0.1322
@<TRIPOS>BOND
     1    1    2 1
     2    1   31 1
     3    1   32 1
     4    1   33 1
     5    2    3 1
     6    3    8 ar
     7    3    4 ar
     8    4    5 ar
     9    4   34 1
    10    5    6 ar
    11    5   35 1
    12    6    7 ar
    13    6   18 1
    14    7    8 ar
    15    7   36 1
    16    8    9 1
    17    9   10 1
    18    9   37 1
    19    9   38 1
    20   10   15 ar
    21   10   11 ar
    22   11   12 ar
    23   11   39 1
    24   12   13 ar
    25   13   14 ar
    26   13   17 1
    27   14   15 ar
    28   15   16 1
    29   16   40 1
    30   16   41 1
    31   17   42 1
    32   17   43 1
    33   18   19 3
    34   19   20 1
    35   20   21 1
    36   20   44 1
    37   20   45 1
    38   21   22 1
    39   22   27 ar
    40   22   23 ar
    41   23   24 ar
    42   23   46 1
    43   24   25 ar
    44   24   47 1
    45   25   26 ar
    46   25   48 1
    47   26   27 ar
    48   26   49 1
    49   27   28 1
    50   28   29 2
    51   28   30 1
@<TRIPOS>MOLECULE
CHEMBL35437__1
   50    52     0     0     0
SMALL
USER_CHARGES

@<TRIPOS>ATOM
      1 C1         -0.0173    1.4248    0.0099 C.3       1 <0>         0.0215
      2 O1          0.0021   -0.0041    0.0020 O.3       1 <0>        -0.3229
      3 C2         -1.2000   -0.6373    0.0101 C.ar      1 <0>         0.1391
      4 C3         -2.3737    0.1050    0.0196 C.ar      1 <0>        -0.1947
      5 C4         -3.5951   -0.5338    0.0278 C.ar      1 <0>        -0.0434
      6 C5         -3.6513   -1.9286    0.0266 C.ar      1 <0>         0.0130
      7 C6         -2.4696   -2.6710    0.0170 C.ar      1 <0>        -0.0611
      8 C7         -1.2517   -2.0247    0.0031 C.ar      1 <0>        -0.1346
      9 C8          0.0249   -2.8253   -0.0139 C.3       1 <0>        -0.0186
     10 C9          0.5303   -2.9949    1.3957 C.ar      1 <0>        -0.2147
     11 C10         1.4685   -2.1265    1.9190 C.ar      1 <0>         0.2088
     12 N1          1.8923   -2.3023    3.1618 N.ar      1 <0>        -0.5704
     13 C11         1.4294   -3.2967    3.9050 C.ar      1 <0>         0.6590
     14 N2          0.5301   -4.1509    3.4407 N.ar      1 <0>        -0.5744
     15 C12         0.0565   -4.0299    2.2045 C.ar      1 <0>         0.5344
     16 N3         -0.8884   -4.9214    1.7234 N.pl3     1 <0>        -0.7753
     17 N4          1.8976   -3.4469    5.1987 N.pl3     1 <0>        -0.7962
     18 C13        -4.9182   -2.5960    0.0356 C.1       1 <0>        -0.1494
     19 C14        -5.9569   -3.1432    0.0429 C.1       1 <0>        -0.1081
     20 C15        -7.2592   -3.8292    0.0522 C.3       1 <0>         0.1579
     21 O2         -7.0528   -5.2432    0.0489 O.3       1 <0>        -0.2587
     22 C16        -8.1593   -6.0270    0.0565 C.ar      1 <0>         0.1507
     23 C17        -9.4213   -5.4510    0.0611 C.ar      1 <0>        -0.2331
     24 C18       -10.5469   -6.2501    0.0684 C.ar      1 <0>        -0.0898
     25 C19       -10.4274   -7.6310    0.0716 C.ar      1 <0>        -0.1733
     26 C20        -9.1832   -8.2212    0.0671 C.ar      1 <0>        -0.0483
     27 C21        -8.0335   -7.4244    0.0539 C.ar      1 <0>        -0.1621
     28 C22        -6.7005   -8.0478    0.0434 C.2       1 <0>         0.5208
     29 O3         -6.5953   -9.2667    0.0411 O.co2     1 <0>        -0.6914
     30 O4         -5.6976   -7.3472    0.0368 O.co2     1 <0>        -0.6709
     31 H1          1.0053    1.8021    0.0021 H         1 <0>         0.1042
     32 H2         -0.5445    1.7859   -0.8732 H         1 <0>         0.0645
     33 H3         -0.5275    1.7763    0.9067 H         1 <0>         0.0583
     34 H4         -2.3294    1.1841    0.0208 H         1 <0>         0.1395
     35 H5         -4.5075    0.0441    0.0355 H         1 <0>         0.1395
     36 H6         -2.5090   -3.7503    0.0165 H         1 <0>         0.1274
     37 H7         -0.1664   -3.8050   -0.4516 H         1 <0>         0.0960
     38 H8          0.7741   -2.3020   -0.6080 H         1 <0>         0.1127
     39 H9          1.8526   -1.3132    1.3212 H         1 <0>         0.2159
     40 H10        -1.2259   -4.8292    0.8187 H         1 <0>         0.4303
     41 H11        -1.2126   -5.6379    2.2914 H         1 <0>         0.4282
     42 H12         2.5566   -2.8282    5.5508 H         1 <0>         0.4287
     43 H13         1.5669   -4.1707    5.7533 H         1 <0>         0.4433
     44 H14        -7.8133   -3.5450    0.9468 H         1 <0>         0.0840
     45 H15        -7.8270   -3.5429   -0.8331 H         1 <0>         0.0849
     46 H16        -9.5234   -4.3759    0.0594 H         1 <0>         0.1187
     47 H17       -11.5269   -5.7964    0.0720 H         1 <0>         0.1161
     48 H18       -11.3144   -8.2471    0.0780 H         1 <0>         0.1175
     49 H19        -9.0952   -9.2977    0.0700 H         1 <0>         0.1341
     50 H20         2.5510   -1.6946    3.5329 H         1 <0>         0.4424
@<TRIPOS>BOND
     1    1    2 1
     2    1   31 1
     3    1   32 1
     4    1   33 1
     5    2    3 1
     6    3    8 ar
     7    3    4 ar
     8    4    5 ar
     9    4   34 1
    10    5    6 ar
    11    5   35 1
    12    6    7 ar
    13    6   18 1
    14    7    8 ar
    15    7   36 1
    16    8    9 1
    17    9   10 1
    18    9   37 1
    19    9   38 1
    20   10   15 ar
    21   10   11 ar
    22   11   12 ar
    23   11   39 1
    24   12   13 ar
    25   12   50 1
    26   13   14 ar
    27   13   17 1
    28   14   15 ar
    29   15   16 1
    30   16   40 1
    31   16   41 1
    32   17   42 1
    33   17   43 1
    34   18   19 3
    35   19   20 1
    36   20   21 1
    37   20   44 1
    38   20   45 1
    39   21   22 1
    40   22   27 ar
    41   22   23 ar
    42   23   24 ar
    43   23   46 1
    44   24   25 ar
    45   24   47 1
    46   25   26 ar
    47   25   48 1
    48   26   27 ar
    49   26   49 1
    50   27   28 1
    51   28   29 2
    52   28   30 1
@<TRIPOS>MOLECULE
CHEMBL140597
   41    43     0     0     0
SMALL
USER_CHARGES

@<TRIPOS>ATOM
      1 C1         -0.0173    1.4248    0.0099 C.3       1 <0>         0.0182
      2 O1          0.0021   -0.0041    0.0020 O.3       1 <0>        -0.2942
      3 C2          0.6062   -0.6075   -1.0564 C.ar      1 <0>         0.1712
      4 C3          1.1729    0.1590   -2.0621 C.ar      1 <0>        -0.1956
      5 C4          1.7870   -0.4560   -3.1371 C.ar      1 <0>        -0.0098
      6 C5          1.8372   -1.8356   -3.2121 C.ar      1 <0>        -0.6674
      7 C6          1.2734   -2.6062   -2.2124 C.ar      1 <0>        -0.0781
      8 C7          0.6617   -1.9961   -1.1290 C.ar      1 <0>         0.0857
      9 O2          0.1119   -2.7526   -0.1417 O.3       1 <0>        -0.2992
     10 C8          0.2064   -4.1715   -0.2827 C.3       1 <0>         0.0191
     11 S1          2.6209   -2.6134   -4.5852 S.o2      1 <0>         2.5891
     12 O3          2.0558   -3.9128   -4.6929 O.2       1 <0>        -0.8990
     13 O4          2.5892   -1.6779   -5.6544 O.2       1 <0>        -0.9050
     14 C9          4.3164   -2.8354   -4.1603 C.ar      1 <0>        -0.4170
     15 C10         5.2295   -1.8270   -4.4609 C.ar      1 <0>        -0.0100
     16 C11         6.5489   -1.9813   -4.1383 C.ar      1 <0>        -0.1007
     17 C12         6.9391   -3.1733   -3.5044 C.ar      1 <0>         0.1941
     18 C13         5.9565   -4.1542   -3.2299 C.ar      1 <0>         0.0013
     19 N1          4.6867   -3.9442   -3.5636 N.ar      1 <0>        -0.3145
     20 C14         6.3929   -5.3851   -2.5689 C.ar      1 <0>         0.5806
     21 N2          7.6788   -5.5023   -2.2700 N.ar      1 <0>        -0.5857
     22 C15         8.5474   -4.5382   -2.5584 C.ar      1 <0>         0.7027
     23 N3          8.2085   -3.4112   -3.1515 N.ar      1 <0>        -0.5867
     24 N4          9.8747   -4.7271   -2.2175 N.pl3     1 <0>        -0.7773
     25 N5          5.4966   -6.3883   -2.2669 N.pl3     1 <0>        -0.7307
     26 H1          1.0053    1.8021    0.0021 H         1 <0>         0.0620
     27 H2         -0.5445    1.7859   -0.8732 H         1 <0>         0.0649
     28 H3         -0.5275    1.7763    0.9067 H         1 <0>         0.1113
     29 H4          1.1344    1.2368   -2.0063 H         1 <0>         0.1527
     30 H5          2.2283    0.1425   -3.9203 H         1 <0>         0.1516
     31 H6          1.3136   -3.6837   -2.2735 H         1 <0>         0.1562
     32 H7         -0.2705   -4.6540    0.5704 H         1 <0>         0.1094
     33 H8         -0.2940   -4.4795   -1.2008 H         1 <0>         0.0635
     34 H9          1.2558   -4.4633   -0.3254 H         1 <0>         0.0548
     35 H10         4.8951   -0.9236   -4.9491 H         1 <0>         0.1894
     36 H11         7.2703   -1.2100   -4.3643 H         1 <0>         0.1838
     37 H12        10.1509   -5.5473   -1.7795 H         1 <0>         0.4484
     38 H13         4.5589   -6.2851   -2.4928 H         1 <0>         0.4457
     39 H14         5.8036   -7.1974   -1.8287 H         1 <0>         0.4376
     40 H15        10.5291   -4.0394   -2.4165 H         1 <0>         0.4338
     41 H16         8.8887   -2.7447   -3.3357 H         1 <0>         0.4438
@<TRIPOS>BOND
     1    1    2 1
     2    1   26 1
     3    1   27 1
     4    1   28 1
     5    2    3 1
     6    3    8 ar
     7    3    4 ar
     8    4    5 ar
     9    4   29 1
    10    5    6 ar
    11    5   30 1
    12    6    7 ar
    13    6   11 1
    14    7    8 ar
    15    7   31 1
    16    8    9 1
    17    9   10 1
    18   10   32 1
    19   10   33 1
    20   10   34 1
    21   11   12 2
    22   11   13 2
    23   11   14 1
    24   14   19 ar
    25   14   15 ar
    26   15   16 ar
    27   15   35 1
    28   16   17 ar
    29   16   36 1
    30   17   23 ar
    31   17   18 ar
    32   18   19 ar
    33   18   20 ar
    34   20   21 ar
    35   20   25 1
    36   21   22 ar
    37   22   23 ar
    38   22   24 1
    39   23   41 1
    40   24   37 1
    41   24   40 1
    42   25   38 1
    43   25   39 1
@<TRIPOS>MOLECULE
CHEMBL74592
   45    48     0     0     0
SMALL
USER_CHARGES

@<TRIPOS>ATOM
      1 C1         -0.0225    1.8097    0.0120 C.3       1 <0>        -0.1435
      2 S1          0.0021   -0.0041    0.0020 S.3       1 <0>        -0.0973
      3 C2          0.8484   -0.4107   -1.4889 C.2       1 <0>        -0.1831
      4 C3          0.2410   -0.6169   -2.8104 C.ar      1 <0>        -0.0793
      5 C4         -1.0693   -0.5685   -3.2891 C.ar      1 <0>        -0.0508
      6 C5         -1.3203   -0.8149   -4.6091 C.ar      1 <0>        -0.1296
      7 C6         -0.2801   -1.1141   -5.4805 C.ar      1 <0>        -0.0068
      8 C7          1.0208   -1.1672   -5.0292 C.ar      1 <0>        -0.1224
      9 C8          1.2992   -0.9195   -3.6877 C.ar      1 <0>         0.1160
     10 N1          2.4581   -0.8995   -2.9520 N.pl3     1 <0>        -0.4761
     11 C9          2.1703   -0.5850   -1.6341 C.2       1 <0>         0.1379
     12 C10         3.2291   -0.4701   -0.5610 C.3       1 <0>         0.1174
     13 N2          4.5400   -0.3621   -1.2238 N.3       1 <0>        -0.5435
     14 C11         4.7189   -1.4245   -2.2229 C.3       1 <0>         0.0356
     15 C12         3.8222   -1.1598   -3.4350 C.3       1 <0>         0.1172
     16 C13         5.6304   -0.3761   -0.2395 C.3       1 <0>         0.0991
     17 C14         6.9266   -0.0200   -0.9207 C.ar      1 <0>        -0.2276
     18 C15         7.8222   -1.0034   -1.2933 C.ar      1 <0>         0.2086
     19 N3          8.9530   -0.6576   -1.8909 N.ar      1 <0>        -0.5726
     20 C16         9.2337    0.6143   -2.1336 C.ar      1 <0>         0.6651
     21 N4          8.4023    1.5869   -1.7919 N.ar      1 <0>        -0.5754
     22 C17         7.2471    1.3113   -1.1947 C.ar      1 <0>         0.5453
     23 N5          6.3767    2.3303   -0.8436 N.pl3     1 <0>        -0.7655
     24 N6         10.4258    0.9345   -2.7595 N.pl3     1 <0>        -0.7901
     25 Cl1        -0.6229   -1.4245   -7.1537 Cl        1 <0>        -0.0577
     26 H1          1.0001    2.1870    0.0043 H         1 <0>         0.0720
     27 H2         -0.5497    2.1708   -0.8711 H         1 <0>         0.0784
     28 H3         -0.5327    2.1613    0.9088 H         1 <0>         0.1060
     29 H4         -1.8827   -0.3370   -2.6174 H         1 <0>         0.1400
     30 H5         -2.3346   -0.7772   -4.9780 H         1 <0>         0.1399
     31 H6          1.8225   -1.4001   -5.7144 H         1 <0>         0.1304
     32 H7          3.0470    0.4192    0.0424 H         1 <0>         0.1155
     33 H8          3.2088   -1.3566    0.0730 H         1 <0>         0.0809
     34 H9          5.7612   -1.4516   -2.5404 H         1 <0>         0.0891
     35 H10         4.4499   -2.3848   -1.7829 H         1 <0>         0.0624
     36 H11         3.8189   -2.0258   -4.0969 H         1 <0>         0.0966
     37 H12         4.1949   -0.2874   -3.9719 H         1 <0>         0.0850
     38 H13         5.4207    0.3507    0.5453 H         1 <0>         0.1080
     39 H14         5.7115   -1.3708    0.1987 H         1 <0>         0.0782
     40 H15         7.6031   -2.0430   -1.0994 H         1 <0>         0.2129
     41 H16         5.5376    2.1215   -0.4041 H         1 <0>         0.4338
     42 H17         6.6064    3.2525   -1.0373 H         1 <0>         0.4282
     43 H18        11.0437    0.2317   -3.0147 H         1 <0>         0.4311
     44 H19        10.6434    1.8618   -2.9430 H         1 <0>         0.4456
     45 H20         9.5844   -1.3453   -2.1541 H         1 <0>         0.4452
@<TRIPOS>BOND
     1    1    2 1
     2    1   26 1
     3    1   27 1
     4    1   28 1
     5    2    3 1
     6    3   11 2
     7    3    4 1
     8    4    9 ar
     9    4    5 ar
    10    5    6 ar
    11    5   29 1
    12    6    7 ar
    13    6   30 1
    14    7    8 ar
    15    7   25 1
    16    8    9 ar
    17    8   31 1
    18    9   10 1
    19   10   15 1
    20   10   11 1
    21   11   12 1
    22   12   13 1
    23   12   32 1
    24   12   33 1
    25   13   14 1
    26   13   16 1
    27   14   15 1
    28   14   34 1
    29   14   35 1
    30   15   36 1
    31   15   37 1
    32   16   17 1
    33   16   38 1
    34   16   39 1
    35   17   22 ar
    36   17   18 ar
    37   18   19 ar
    38   18   40 1
    39   19   20 ar
    40   19   45 1
    41   20   21 ar
    42   20   24 1
    43   21   22 ar
    44   22   23 1
    45   23   41 1
    46   23   42 1
    47   24   43 1
    48   24   44 1
@<TRIPOS>MOLECULE
CHEMBL74592__1
   44    47     0     0     0
SMALL
USER_CHARGES

@<TRIPOS>ATOM
      1 C1         -0.0225    1.8097    0.0120 C.3       1 <0>        -0.1439
      2 S1          0.0021   -0.0041    0.0020 S.3       1 <0>        -0.1006
      3 C2         -1.7016   -0.4536    0.0159 C.2       1 <0>        -0.1974
      4 C3         -2.5370   -0.6767    1.2034 C.ar      1 <0>        -0.0768
      5 C4         -2.2979   -0.6174    2.5772 C.ar      1 <0>        -0.0538
      6 C5         -3.3091   -0.8862    3.4554 C.ar      1 <0>        -0.1336
      7 C6         -4.5759   -1.2189    2.9913 C.ar      1 <0>        -0.0118
      8 C7         -4.8339   -1.2833    1.6392 C.ar      1 <0>        -0.1186
      9 C8         -3.8178   -1.0131    0.7265 C.ar      1 <0>         0.1146
     10 N1         -3.7605   -0.9965   -0.6450 N.pl3     1 <0>        -0.4716
     11 C9         -2.4834   -0.6513   -1.0558 C.2       1 <0>         0.1557
     12 C10        -2.0863   -0.5315   -2.5096 C.3       1 <0>         0.1123
     13 N2         -3.3180   -0.4572   -3.3139 N.3       1 <0>        -0.5386
     14 C11        -4.2457   -1.5420   -2.9656 C.3       1 <0>         0.0390
     15 C12        -4.8538   -1.2876   -1.5840 C.3       1 <0>         0.1160
     16 C13        -3.0103   -0.4685   -4.7503 C.3       1 <0>         0.1210
     17 C14        -4.2568   -0.1463   -5.5336 C.ar      1 <0>        -0.3164
     18 C15        -5.0023   -1.1508   -6.1194 C.ar      1 <0>         0.2228
     19 N3         -6.0934   -0.8347   -6.8012 N.ar      1 <0>        -0.6073
     20 C16        -6.4760    0.4276   -6.9271 C.ar      1 <0>         0.6073
     21 N4         -5.7891    1.4196   -6.3813 N.ar      1 <0>        -0.6310
     22 C17        -4.6876    1.1741   -5.6788 C.ar      1 <0>         0.5029
     23 N5         -3.9743    2.2133   -5.1041 N.pl3     1 <0>        -0.8263
     24 N6         -7.6219    0.7166   -7.6473 N.pl3     1 <0>        -0.8202
     25 Cl1        -5.8456   -1.5574    4.1258 Cl        1 <0>        -0.0655
     26 H1          1.0001    2.1870    0.0043 H         1 <0>         0.1028
     27 H2         -0.5497    2.1708   -0.8711 H         1 <0>         0.0737
     28 H3         -0.5327    2.1613    0.9088 H         1 <0>         0.0761
     29 H4         -1.3157   -0.3599    2.9451 H         1 <0>         0.1371
     30 H5         -3.1226   -0.8401    4.5181 H         1 <0>         0.1361
     31 H6         -5.8220   -1.5422    1.2883 H         1 <0>         0.1304
     32 H7         -1.4952    0.3725   -2.6567 H         1 <0>         0.1103
     33 H8         -1.5050   -1.4047   -2.8059 H         1 <0>         0.0736
     34 H9         -5.0409   -1.5917   -3.7095 H         1 <0>         0.1014
     35 H10        -3.7062   -2.4890   -2.9493 H         1 <0>         0.0515
     36 H11        -5.4034   -2.1666   -1.2472 H         1 <0>         0.0932
     37 H12        -5.5268   -0.4321   -1.6414 H         1 <0>         0.0865
     38 H13        -2.2443    0.2770   -4.9637 H         1 <0>         0.0847
     39 H14        -2.6465   -1.4554   -5.0362 H         1 <0>         0.0545
     40 H15        -4.6988   -2.1827   -6.0230 H         1 <0>         0.1609
     41 H16        -3.1691    2.0264   -4.5964 H         1 <0>         0.4138
     42 H17        -4.2799    3.1279   -5.2094 H         1 <0>         0.4057
     43 H18        -8.1340   -0.0007   -8.0524 H         1 <0>         0.4157
     44 H19        -7.9130    1.6365   -7.7470 H         1 <0>         0.4138
@<TRIPOS>BOND
     1    1    2 1
     2    1   26 1
     3    1   27 1
     4    1   28 1
     5    2    3 1
     6    3   11 2
     7    3    4 1
     8    4    9 ar
     9    4    5 ar
    10    5    6 ar
    11    5   29 1
    12    6    7 ar
    13    6   30 1
    14    7    8 ar
    15    7   25 1
    16    8    9 ar
    17    8   31 1
    18    9   10 1
    19   10   15 1
    20   10   11 1
    21   11   12 1
    22   12   13 1
    23   12   32 1
    24   12   33 1
    25   13   14 1
    26   13   16 1
    27   14   15 1
    28   14   34 1
    29   14   35 1
    30   15   36 1
    31   15   37 1
    32   16   17 1
    33   16   38 1
    34   16   39 1
    35   17   22 ar
    36   17   18 ar
    37   18   19 ar
    38   18   40 1
    39   19   20 ar
    40   20   21 ar
    41   20   24 1
    42   21   22 ar
    43   22   23 1
    44   23   41 1
    45   23   42 1
    46   24   43 1
    47   24   44 1
@<TRIPOS>MOLECULE
CHEMBL464504
   54    57     0     0     0
SMALL
USER_CHARGES

@<TRIPOS>ATOM
      1 C1         -0.3137    0.9779   -1.9195 C.3       1 <0>         0.0242
      2 O1         -0.1959   -0.3044   -1.2999 O.3       1 <0>        -0.2998
      3 C2         -1.3002   -0.7907   -0.6726 C.ar      1 <0>         0.1681
      4 C3         -2.4723   -0.0510   -0.6597 C.ar      1 <0>        -0.2641
      5 C4         -3.5996   -0.5472   -0.0188 C.ar      1 <0>         0.2290
      6 C5         -3.5538   -1.7844    0.6096 C.ar      1 <0>        -0.2270
      7 C6         -2.3825   -2.5254    0.5971 C.ar      1 <0>         0.1668
      8 C7         -1.2553   -2.0320   -0.0491 C.ar      1 <0>         0.0108
      9 O2         -0.1058   -2.7617   -0.0662 O.3       1 <0>        -0.3108
     10 C8          0.8119   -2.5519    1.0089 C.3       1 <0>         0.0345
     11 O3         -2.3377   -3.7372    1.2127 O.3       1 <0>        -0.2999
     12 C9         -3.5347   -4.1845    1.8524 C.3       1 <0>         0.0256
     13 N1         -4.7827    0.2005   -0.0058 N.pl3     1 <0>        -0.6469
     14 C10        -6.0084   -0.4410   -0.0799 C.ar      1 <0>         0.4018
     15 C11        -7.1979    0.3209   -0.1597 C.ar      1 <0>         0.0646
     16 N2         -8.3716   -0.2792   -0.2308 N.ar      1 <0>        -0.3647
     17 C12        -8.4381   -1.6132   -0.2274 C.ar      1 <0>        -0.0464
     18 C13        -9.6861   -2.2737   -0.3034 C.ar      1 <0>         0.3187
     19 C14        -9.7314   -3.6494   -0.2988 C.ar      1 <0>        -0.2917
     20 C15        -8.5548   -4.4004   -0.2192 C.ar      1 <0>         0.3088
     21 C16        -7.3251   -3.7789   -0.1442 C.ar      1 <0>        -0.2686
     22 C17        -7.2477   -2.3788   -0.1474 C.ar      1 <0>         0.2191
     23 N3         -6.0602   -1.7589   -0.0811 N.ar      1 <0>        -0.5070
     24 N4         -8.6248   -5.7930   -0.2151 N.pl3     1 <0>        -0.8624
     25 N5        -10.8644   -1.5354   -0.3821 N.pl3     1 <0>        -0.8475
     26 C18        -7.1259    1.8008   -0.1631 C.ar      1 <0>        -0.0318
     27 C19        -6.1769    2.4537   -0.9492 C.ar      1 <0>        -0.1243
     28 C20        -6.1147    3.8321   -0.9482 C.ar      1 <0>        -0.1121
     29 C21        -6.9909    4.5663   -0.1690 C.ar      1 <0>        -0.1118
     30 C22        -7.9342    3.9243    0.6132 C.ar      1 <0>        -0.1147
     31 C23        -8.0106    2.5465    0.6154 C.ar      1 <0>        -0.0846
     32 H1          0.6360    1.2465   -2.3821 H         1 <0>         0.1031
     33 H2         -1.0921    0.9429   -2.6818 H         1 <0>         0.0576
     34 H3         -0.5749    1.7223   -1.1674 H         1 <0>         0.0567
     35 H4         -2.5086    0.9116   -1.1479 H         1 <0>         0.1362
     36 H5         -4.4309   -2.1694    1.1085 H         1 <0>         0.1581
     37 H6          0.3257   -2.7936    1.9541 H         1 <0>         0.0432
     38 H7          1.6827   -3.1936    0.8738 H         1 <0>         0.0910
     39 H8          1.1274   -1.5086    1.0189 H         1 <0>         0.0428
     40 H9         -3.8204   -3.4729    2.6271 H         1 <0>         0.0540
     41 H10        -4.3342   -4.2597    1.1154 H         1 <0>         0.0631
     42 H11        -3.3625   -5.1621    2.3027 H         1 <0>         0.1009
     43 H12        -4.7445    1.1678    0.0551 H         1 <0>         0.4235
     44 H13       -10.6848   -4.1534   -0.3568 H         1 <0>         0.1303
     45 H14        -6.4233   -4.3700   -0.0831 H         1 <0>         0.1297
     46 H15        -9.4864   -6.2355   -0.2673 H         1 <0>         0.4017
     47 H16        -7.8118   -6.3193   -0.1601 H         1 <0>         0.4035
     48 H17       -10.8301   -0.5660   -0.3848 H         1 <0>         0.4105
     49 H18       -11.7193   -1.9906   -0.4341 H         1 <0>         0.4034
     50 H19        -5.4919    1.8815   -1.5573 H         1 <0>         0.1259
     51 H20        -5.3802    4.3389   -1.5565 H         1 <0>         0.1284
     52 H21        -6.9382    5.6450   -0.1712 H         1 <0>         0.1261
     53 H22        -8.6152    4.5027    1.2199 H         1 <0>         0.1275
     54 H23        -8.7505    2.0465    1.2227 H         1 <0>         0.1269
@<TRIPOS>BOND
     1    1    2 1
     2    1   32 1
     3    1   33 1
     4    1   34 1
     5    2    3 1
     6    3    8 ar
     7    3    4 ar
     8    4    5 ar
     9    4   35 1
    10    5    6 ar
    11    5   13 1
    12    6    7 ar
    13    6   36 1
    14    7    8 ar
    15    7   11 1
    16    8    9 1
    17    9   10 1
    18   10   37 1
    19   10   38 1
    20   10   39 1
    21   11   12 1
    22   12   40 1
    23   12   41 1
    24   12   42 1
    25   13   14 1
    26   13   43 1
    27   14   23 ar
    28   14   15 ar
    29   15   16 ar
    30   15   26 1
    31   16   17 ar
    32   17   22 ar
    33   17   18 ar
    34   18   19 ar
    35   18   25 1
    36   19   20 ar
    37   19   44 1
    38   20   21 ar
    39   20   24 1
    40   21   22 ar
    41   21   45 1
    42   22   23 ar
    43   24   46 1
    44   24   47 1
    45   25   48 1
    46   25   49 1
    47   26   31 ar
    48   26   27 ar
    49   27   28 ar
    50   27   50 1
    51   28   29 ar
    52   28   51 1
    53   29   30 ar
    54   29   52 1
    55   30   31 ar
    56   30   53 1
    57   31   54 1
@<TRIPOS>MOLECULE
CHEMBL317017
   39    42     0     0     0
SMALL
USER_CHARGES

@<TRIPOS>ATOM
      1 C1          0.4100   -1.0029   -1.3617 C.ar      1 <0>        -0.1182
      2 C2          1.4947   -0.1476   -1.4144 C.ar      1 <0>        -0.1206
      3 C3          2.7643   -0.6243   -1.1468 C.ar      1 <0>        -0.0968
      4 C4          2.9493   -1.9561   -0.8261 C.ar      1 <0>        -0.0827
      5 C5          1.8645   -2.8112   -0.7725 C.ar      1 <0>        -0.1155
      6 C6          0.5950   -2.3349   -1.0415 C.ar      1 <0>        -0.1199
      7 C7          4.3336   -2.4760   -0.5353 C.3       1 <0>         0.0946
      8 N1          4.6141   -2.3453    0.9007 N.3       1 <0>        -0.5244
      9 C8          6.0267   -2.6301    1.1895 C.3       1 <0>         0.0539
     10 C9          6.3858   -2.1338    2.5920 C.3       1 <0>        -0.0664
     11 C10         5.3677   -2.7035    3.5773 C.2       1 <0>        -0.0535
     12 C11         4.1883   -3.1837    3.1190 C.2       1 <0>        -0.1836
     13 S1          3.3186   -3.7389    4.5617 S.3       1 <0>         0.1275
     14 C12         4.5316   -3.3286    5.7752 C.ar      1 <0>         0.1789
     15 C13         5.5865   -2.7665    5.0116 C.ar      1 <0>        -0.2980
     16 C14         6.7381   -2.3283    5.7273 C.ar      1 <0>         0.5344
     17 N2          6.7023   -2.4938    7.0473 N.ar      1 <0>        -0.6422
     18 C15         5.6799   -3.0282    7.6972 C.ar      1 <0>         0.6214
     19 N3          4.5739   -3.4578    7.0864 N.ar      1 <0>        -0.5466
     20 N4          5.7624   -3.1474    9.0748 N.pl3     1 <0>        -0.8136
     21 N5          7.8278   -1.7651    5.0884 N.pl3     1 <0>        -0.8253
     22 C16         3.7352   -3.2254    1.6931 C.3       1 <0>         0.1391
     23 H1         -0.5826   -0.6296   -1.5664 H         1 <0>         0.1212
     24 H2          1.3502    0.8929   -1.6650 H         1 <0>         0.1219
     25 H3          3.6119    0.0438   -1.1887 H         1 <0>         0.1223
     26 H4          2.0090   -3.8518   -0.5223 H         1 <0>         0.1185
     27 H5         -0.2525   -3.0030   -1.0000 H         1 <0>         0.1219
     28 H6          4.3956   -3.5253   -0.8236 H         1 <0>         0.0479
     29 H7          5.0646   -1.8996   -1.1022 H         1 <0>         0.0893
     30 H8          6.1981   -3.7049    1.1313 H         1 <0>         0.0439
     31 H9          6.6547   -2.1252    0.4554 H         1 <0>         0.0856
     32 H10         7.3858   -2.4761    2.8580 H         1 <0>         0.0812
     33 H11         6.3510   -1.0446    2.6164 H         1 <0>         0.0899
     34 H12         6.5564   -2.8426    9.5413 H         1 <0>         0.4158
     35 H13         5.0262   -3.5356    9.5730 H         1 <0>         0.4179
     36 H14         7.7610   -1.5009    4.1575 H         1 <0>         0.4159
     37 H15         8.6588   -1.6343    5.5713 H         1 <0>         0.4098
     38 H16         2.7056   -2.8742    1.6245 H         1 <0>         0.0979
     39 H17         3.8015   -4.2461    1.3164 H         1 <0>         0.0566
@<TRIPOS>BOND
     1    1    6 ar
     2    1    2 ar
     3    1   23 1
     4    2    3 ar
     5    2   24 1
     6    3    4 ar
     7    3   25 1
     8    4    5 ar
     9    4    7 1
    10    5    6 ar
    11    5   26 1
    12    6   27 1
    13    7    8 1
    14    7   28 1
    15    7   29 1
    16    8   22 1
    17    8    9 1
    18    9   10 1
    19    9   30 1
    20    9   31 1
    21   10   11 1
    22   10   32 1
    23   10   33 1
    24   11   15 1
    25   11   12 2
    26   12   13 1
    27   12   22 1
    28   13   14 1
    29   14   19 ar
    30   14   15 ar
    31   15   16 ar
    32   16   17 ar
    33   16   21 1
    34   17   18 ar
    35   18   19 ar
    36   18   20 1
    37   20   34 1
    38   20   35 1
    39   21   36 1
    40   21   37 1
    41   22   38 1
    42   22   39 1
@<TRIPOS>MOLECULE
CHEMBL317017__1
   40    43     0     0     0
SMALL
USER_CHARGES

@<TRIPOS>ATOM
      1 C1          0.2597   -0.8438   -1.3045 C.ar      1 <0>        -0.0826
      2 C2          1.3529    0.0001   -1.3668 C.ar      1 <0>        -0.1135
      3 C3          2.6215   -0.4934   -1.1263 C.ar      1 <0>        -0.0925
      4 C4          2.7970   -1.8306   -0.8231 C.ar      1 <0>        -0.1651
      5 C5          1.7038   -2.6743   -0.7600 C.ar      1 <0>        -0.0962
      6 C6          0.4353   -2.1811   -1.0018 C.ar      1 <0>        -0.1130
      7 C7          4.1802   -2.3688   -0.5620 C.3       1 <0>         0.0467
      8 N1          4.4868   -2.2569    0.8703 N.4       1 <0>        -0.3827
      9 C8          5.8758   -2.6714    1.1080 C.3       1 <0>        -0.0027
     10 C9          6.3108   -2.2702    2.5197 C.3       1 <0>        -0.1036
     11 C10         5.2779   -2.8112    3.5060 C.2       1 <0>        -0.0283
     12 C11         4.0586   -3.1863    3.0532 C.2       1 <0>        -0.2769
     13 S1          3.1805   -3.7454    4.4890 S.3       1 <0>         0.1950
     14 C12         4.4430   -3.4763    5.6918 C.ar      1 <0>         0.1947
     15 C13         5.5201   -2.9546    4.9301 C.ar      1 <0>        -0.3191
     16 C14         6.7132   -2.6308    5.6386 C.ar      1 <0>         0.5466
     17 N2          6.6914   -2.8538    6.9505 N.ar      1 <0>        -0.6370
     18 C15         5.6466   -3.3449    7.5989 C.ar      1 <0>         0.6399
     19 N3          4.5013   -3.6677    6.9946 N.ar      1 <0>        -0.5423
     20 N4          5.7471   -3.5326    8.9676 N.pl3     1 <0>        -0.7992
     21 N5          7.8270   -2.1152    5.0012 N.pl3     1 <0>        -0.8209
     22 C16         3.5783   -3.1282    1.6372 C.3       1 <0>         0.1010
     23 H1         -0.7319   -0.4573   -1.4880 H         1 <0>         0.1360
     24 H2          1.2158    1.0448   -1.6037 H         1 <0>         0.1360
     25 H3          3.4757    0.1657   -1.1757 H         1 <0>         0.1312
     26 H4          1.8409   -3.7191   -0.5234 H         1 <0>         0.1318
     27 H5         -0.4188   -2.8403   -0.9529 H         1 <0>         0.1368
     28 H6          4.2255   -3.4155   -0.8625 H         1 <0>         0.1389
     29 H7          4.9078   -1.7943   -1.1352 H         1 <0>         0.1411
     30 H8          5.9537   -3.7532    0.9996 H         1 <0>         0.1365
     31 H9          6.5266   -2.1893    0.3785 H         1 <0>         0.1414
     32 H10         7.2889   -2.6984    2.7392 H         1 <0>         0.1245
     33 H11         6.3585   -1.1839    2.5955 H         1 <0>         0.1102
     34 H12         6.5694   -3.3055    9.4292 H         1 <0>         0.4222
     35 H13         4.9951   -3.8911    9.4645 H         1 <0>         0.4239
     36 H14         7.7650   -1.8198    4.0794 H         1 <0>         0.4114
     37 H15         8.6703   -2.0491    5.4760 H         1 <0>         0.4180
     38 H16         2.5684   -2.7191    1.6095 H         1 <0>         0.1428
     39 H17         3.5825   -4.1300    1.2077 H         1 <0>         0.1429
     40 H18         4.3654   -1.3001    1.1668 H         1 <0>         0.4262
@<TRIPOS>BOND
     1    1    6 ar
     2    1    2 ar
     3    1   23 1
     4    2    3 ar
     5    2   24 1
     6    3    4 ar
     7    3   25 1
     8    4    5 ar
     9    4    7 1
    10    5    6 ar
    11    5   26 1
    12    6   27 1
    13    7    8 1
    14    7   28 1
    15    7   29 1
    16    8   22 1
    17    8    9 1
    18    8   40 1
    19    9   10 1
    20    9   30 1
    21    9   31 1
    22   10   11 1
    23   10   32 1
    24   10   33 1
    25   11   15 1
    26   11   12 2
    27   12   13 1
    28   12   22 1
    29   13   14 1
    30   14   19 ar
    31   14   15 ar
    32   15   16 ar
    33   16   17 ar
    34   16   21 1
    35   17   18 ar
    36   18   19 ar
    37   18   20 1
    38   20   34 1
    39   20   35 1
    40   21   36 1
    41   21   37 1
    42   22   38 1
    43   22   39 1
@<TRIPOS>MOLECULE
CHEMBL33815
   58    60     0     0     0
SMALL
USER_CHARGES

@<TRIPOS>ATOM
      1 C1         -0.0178    1.4608    0.0101 C.3       1 <0>         0.0776
      2 N1          0.0021   -0.0041    0.0020 N.pl3     1 <0>        -0.6007
      3 C2          0.0241   -0.7433    1.2666 C.3       1 <0>         0.1462
      4 C3         -1.3889   -1.0161    1.7137 C.ar      1 <0>        -0.0843
      5 C4         -2.0451   -0.1021    2.5191 C.ar      1 <0>        -0.1042
      6 C5         -3.3387   -0.3453    2.9316 C.ar      1 <0>        -0.0463
      7 C6         -3.9860   -1.5170    2.5346 C.ar      1 <0>        -0.1350
      8 C7         -3.3180   -2.4351    1.7219 C.ar      1 <0>        -0.0785
      9 C8         -2.0263   -2.1768    1.3123 C.ar      1 <0>        -0.1150
     10 C9         -5.3714   -1.7845    2.9729 C.2       1 <0>         0.5570
     11 O1         -5.9500   -0.9839    3.6805 O.2       1 <0>        -0.4461
     12 N2         -5.9934   -2.9165    2.5879 N.am      1 <0>        -0.6725
     13 C10        -7.2571   -3.1605    2.9878 C.2       1 <0>         0.5079
     14 O2         -7.8344   -2.3617    3.6938 O.2       1 <0>        -0.4528
     15 C11        -7.9525   -4.4262    2.5573 C.3       1 <0>         0.0073
     16 H1         -7.7071   -4.6398    1.5170 H         1 <0>         0.1664
     17 C12        -7.4899   -5.5876    3.4393 C.3       1 <0>        -0.1179
     18 C13        -8.0991   -6.8932    2.9244 C.3       1 <0>        -0.2001
     19 C14        -7.6434   -8.0372    3.7932 C.2       1 <0>         0.4876
     20 O3         -6.9002   -7.8276    4.7367 O.co2     1 <0>        -0.6857
     21 O4         -8.0179   -9.1722    3.5526 O.co2     1 <0>        -0.6795
     22 N3         -9.4055   -4.2570    2.6928 N.4       1 <0>        -0.6205
     23 C15        -0.0000   -0.6972   -1.2137 C.ar      1 <0>         0.1707
     24 C16        -0.0151   -0.0024   -2.4126 C.ar      1 <0>        -0.0934
     25 C17        -0.0166   -0.7443   -3.5994 C.ar      1 <0>        -0.1773
     26 C18        -0.0310   -0.1243   -4.8735 C.ar      1 <0>         0.5630
     27 N4         -0.0310   -0.8990   -5.9486 N.ar      1 <0>        -0.5907
     28 C19        -0.0179   -2.2249   -5.8445 C.ar      1 <0>         0.6991
     29 N5         -0.0041   -2.8518   -4.6841 N.ar      1 <0>        -0.5693
     30 C20        -0.0028   -2.1593   -3.5345 C.ar      1 <0>         0.3315
     31 N6          0.0114   -2.7721   -2.3511 N.ar      1 <0>        -0.4496
     32 C21         0.0189   -2.0929   -1.2267 C.ar      1 <0>         0.1455
     33 N7         -0.0192   -2.9791   -7.0034 N.pl3     1 <0>        -0.7849
     34 N8         -0.0450    1.2488   -4.9914 N.pl3     1 <0>        -0.7651
     35 H2          1.0048    1.8381    0.0023 H         1 <0>         0.0699
     36 H3         -0.5450    1.8219   -0.8730 H         1 <0>         0.0718
     37 H4         -0.5280    1.8123    0.9069 H         1 <0>         0.0853
     38 H5          0.5496   -1.6879    1.1262 H         1 <0>         0.0974
     39 H6          0.5371   -0.1514    2.0246 H         1 <0>         0.1096
     40 H7         -1.5431    0.8037    2.8257 H         1 <0>         0.1377
     41 H8         -3.8496    0.3688    3.5605 H         1 <0>         0.1447
     42 H9         -3.8129   -3.3433    1.4112 H         1 <0>         0.1314
     43 H10        -1.5099   -2.8841    0.6803 H         1 <0>         0.1314
     44 H11        -5.5315   -3.5556    2.0231 H         1 <0>         0.4221
     45 H12        -6.4025   -5.6569    3.4079 H         1 <0>         0.1159
     46 H13        -7.8135   -5.4156    4.4658 H         1 <0>         0.1008
     47 H14        -9.1865   -6.8239    2.9558 H         1 <0>         0.0586
     48 H15        -7.7755   -7.0652    1.8979 H         1 <0>         0.0768
     49 H16        -9.8711   -5.1045    2.4046 H         1 <0>         0.4470
     50 H17        -9.6327   -4.0593    3.6558 H         1 <0>         0.4435
     51 H18        -0.0257    1.0774   -2.4307 H         1 <0>         0.1600
     52 H19         0.0355   -2.6279   -0.2886 H         1 <0>         0.1865
     53 H20        -0.0295   -2.5397   -7.8681 H         1 <0>         0.4458
     54 H21        -0.0098   -3.9477   -6.9518 H         1 <0>         0.4323
     55 H22        -0.0452    1.8040   -4.1960 H         1 <0>         0.4302
     56 H23        -0.0548    1.6601   -5.8699 H         1 <0>         0.4338
     57 H24        -9.7106   -3.4911    2.1111 H         1 <0>         0.4340
     58 H25         0.0051   -3.8215   -4.6614 H         1 <0>         0.4431
@<TRIPOS>BOND
     1    1    2 1
     2    1   35 1
     3    1   36 1
     4    1   37 1
     5    2    3 1
     6    2   23 1
     7    3    4 1
     8    3   38 1
     9    3   39 1
    10    4    9 ar
    11    4    5 ar
    12    5    6 ar
    13    5   40 1
    14    6    7 ar
    15    6   41 1
    16    7    8 ar
    17    7   10 1
    18    8    9 ar
    19    8   42 1
    20    9   43 1
    21   10   11 2
    22   10   12 am
    23   12   13 am
    24   12   44 1
    25   13   14 2
    26   13   15 1
    27   15   16 1
    28   15   17 1
    29   15   22 1
    30   17   18 1
    31   17   45 1
    32   17   46 1
    33   18   19 1
    34   18   47 1
    35   18   48 1
    36   19   20 2
    37   19   21 1
    38   22   49 1
    39   22   50 1
    40   22   57 1
    41   23   32 ar
    42   23   24 ar
    43   24   25 ar
    44   24   51 1
    45   25   30 ar
    46   25   26 ar
    47   26   27 ar
    48   26   34 1
    49   27   28 ar
    50   28   29 ar
    51   28   33 1
    52   29   30 ar
    53   29   58 1
    54   30   31 ar
    55   31   32 ar
    56   32   52 1
    57   33   53 1
    58   33   54 1
    59   34   55 1
    60   34   56 1
@<TRIPOS>MOLECULE
CHEMBL33815__1
   57    59     0     0     0
SMALL
USER_CHARGES

@<TRIPOS>ATOM
      1 C1         -0.0178    1.4608    0.0101 C.3       1 <0>         0.0916
      2 N1          0.0021   -0.0041    0.0020 N.pl3     1 <0>        -0.6210
      3 C2          0.0241   -0.7433    1.2666 C.3       1 <0>         0.1546
      4 C3         -1.3889   -1.0161    1.7137 C.ar      1 <0>        -0.0711
      5 C4         -2.0451   -0.1021    2.5191 C.ar      1 <0>        -0.1098
      6 C5         -3.3387   -0.3453    2.9316 C.ar      1 <0>        -0.0492
      7 C6         -3.9860   -1.5170    2.5346 C.ar      1 <0>        -0.1463
      8 C7         -3.3180   -2.4351    1.7219 C.ar      1 <0>        -0.0780
      9 C8         -2.0263   -2.1768    1.3123 C.ar      1 <0>        -0.1116
     10 C9         -5.3714   -1.7845    2.9729 C.2       1 <0>         0.5610
     11 O1         -5.9500   -0.9839    3.6805 O.2       1 <0>        -0.4531
     12 N2         -5.9934   -2.9165    2.5879 N.am      1 <0>        -0.6717
     13 C10        -7.2571   -3.1605    2.9878 C.2       1 <0>         0.5090
     14 O2         -7.8344   -2.3617    3.6938 O.2       1 <0>        -0.4582
     15 C11        -7.9525   -4.4262    2.5573 C.3       1 <0>         0.0057
     16 H1         -7.7071   -4.6398    1.5170 H         1 <0>         0.1677
     17 C12        -7.4899   -5.5876    3.4393 C.3       1 <0>        -0.1174
     18 C13        -8.0991   -6.8932    2.9244 C.3       1 <0>        -0.1999
     19 C14        -7.6434   -8.0372    3.7932 C.2       1 <0>         0.4885
     20 O3         -6.9002   -7.8276    4.7367 O.co2     1 <0>        -0.6858
     21 O4         -8.0179   -9.1722    3.5526 O.co2     1 <0>        -0.6819
     22 N3         -9.4055   -4.2570    2.6928 N.4       1 <0>        -0.6198
     23 C15        -0.0000   -0.6972   -1.2137 C.ar      1 <0>         0.1216
     24 C16        -0.0151   -0.0024   -2.4126 C.ar      1 <0>        -0.0973
     25 C17        -0.0166   -0.7443   -3.5994 C.ar      1 <0>        -0.2362
     26 C18        -0.0310   -0.1243   -4.8735 C.ar      1 <0>         0.5132
     27 N4         -0.0310   -0.8990   -5.9486 N.ar      1 <0>        -0.6279
     28 C19        -0.0179   -2.2249   -5.8445 C.ar      1 <0>         0.6198
     29 N5         -0.0041   -2.8518   -4.6841 N.ar      1 <0>        -0.5924
     30 C20        -0.0028   -2.1593   -3.5345 C.ar      1 <0>         0.3712
     31 N6          0.0114   -2.7721   -2.3511 N.ar      1 <0>        -0.4480
     32 C21         0.0189   -2.0929   -1.2267 C.ar      1 <0>         0.1344
     33 N7         -0.0192   -2.9791   -7.0034 N.pl3     1 <0>        -0.8160
     34 N8         -0.0450    1.2488   -4.9914 N.pl3     1 <0>        -0.8177
     35 H2          1.0048    1.8381    0.0023 H         1 <0>         0.0547
     36 H3         -0.5450    1.8219   -0.8730 H         1 <0>         0.0660
     37 H4         -0.5280    1.8123    0.9069 H         1 <0>         0.0704
     38 H5          0.5496   -1.6879    1.1262 H         1 <0>         0.0921
     39 H6          0.5371   -0.1514    2.0246 H         1 <0>         0.0962
     40 H7         -1.5431    0.8037    2.8257 H         1 <0>         0.1345
     41 H8         -3.8496    0.3688    3.5605 H         1 <0>         0.1400
     42 H9         -3.8129   -3.3433    1.4112 H         1 <0>         0.1291
     43 H10        -1.5099   -2.8841    0.6803 H         1 <0>         0.1358
     44 H11        -5.5315   -3.5556    2.0231 H         1 <0>         0.4236
     45 H12        -6.4025   -5.6569    3.4079 H         1 <0>         0.1170
     46 H13        -7.8135   -5.4156    4.4658 H         1 <0>         0.0995
     47 H14        -9.1865   -6.8239    2.9558 H         1 <0>         0.0574
     48 H15        -7.7755   -7.0652    1.8979 H         1 <0>         0.0781
     49 H16        -9.6327   -4.0593    3.6558 H         1 <0>         0.4421
     50 H17        -9.7106   -3.4911    2.1111 H         1 <0>         0.4339
     51 H18        -0.0257    1.0774   -2.4307 H         1 <0>         0.1348
     52 H19         0.0355   -2.6279   -0.2886 H         1 <0>         0.1633
     53 H20        -0.0295   -2.5397   -7.8681 H         1 <0>         0.4141
     54 H21        -0.0098   -3.9477   -6.9518 H         1 <0>         0.4174
     55 H22        -0.0452    1.8040   -4.1960 H         1 <0>         0.4128
     56 H23        -0.0548    1.6601   -5.8699 H         1 <0>         0.4138
     57 H24        -9.8711   -5.1045    2.4046 H         1 <0>         0.4458
@<TRIPOS>BOND
     1    1    2 1
     2    1   35 1
     3    1   36 1
     4    1   37 1
     5    2    3 1
     6    2   23 1
     7    3    4 1
     8    3   38 1
     9    3   39 1
    10    4    9 ar
    11    4    5 ar
    12    5    6 ar
    13    5   40 1
    14    6    7 ar
    15    6   41 1
    16    7    8 ar
    17    7   10 1
    18    8    9 ar
    19    8   42 1
    20    9   43 1
    21   10   11 2
    22   10   12 am
    23   12   13 am
    24   12   44 1
    25   13   14 2
    26   13   15 1
    27   15   16 1
    28   15   17 1
    29   15   22 1
    30   17   18 1
    31   17   45 1
    32   17   46 1
    33   18   19 1
    34   18   47 1
    35   18   48 1
    36   19   20 2
    37   19   21 1
    38   22   49 1
    39   22   50 1
    40   22   57 1
    41   23   32 ar
    42   23   24 ar
    43   24   25 ar
    44   24   51 1
    45   25   30 ar
    46   25   26 ar
    47   26   27 ar
    48   26   34 1
    49   27   28 ar
    50   28   29 ar
    51   28   33 1
    52   29   30 ar
    53   30   31 ar
    54   31   32 ar
    55   32   52 1
    56   33   53 1
    57   33   54 1
    58   34   55 1
    59   34   56 1
@<TRIPOS>MOLECULE
CHEMBL1089229
   66    70     0     0     0
SMALL
USER_CHARGES

@<TRIPOS>ATOM
      1 C1         -0.0343    1.3161    0.0282 C.ar      1 <0>        -0.1071
      2 C2          1.1469    2.0342    0.0181 C.ar      1 <0>        -0.1245
      3 C3          2.3592    1.3702   -0.0004 C.ar      1 <0>        -0.0908
      4 C4          2.3903   -0.0117   -0.0084 C.ar      1 <0>        -0.1229
      5 C5          1.2092   -0.7298    0.0026 C.ar      1 <0>        -0.0976
      6 C6         -0.0032   -0.0658    0.0198 C.ar      1 <0>        -0.1233
      7 C7          3.7120   -0.7356   -0.0296 C.3       1 <0>         0.1323
      8 N1          4.1583   -0.9777    1.3446 N.am      1 <0>        -0.5219
      9 C8          4.9225   -0.0556    1.9745 C.2       1 <0>         0.5584
     10 O1          5.2492    0.9779    1.4204 O.2       1 <0>        -0.5029
     11 C9          5.3433   -0.3472    3.3517 C.ar      1 <0>        -0.1799
     12 C10         6.1309    0.5405    4.0829 C.ar      1 <0>        -0.0656
     13 C11         6.4976    0.2146    5.3768 C.ar      1 <0>         0.1285
     14 C12         6.0845   -0.9904    5.9458 C.ar      1 <0>        -0.0694
     15 C13         5.3134   -1.8700    5.2422 C.ar      1 <0>        -0.0926
     16 C14         4.9272   -1.5664    3.9333 C.ar      1 <0>         0.1550
     17 N2          4.1618   -2.4154    3.2065 N.2       1 <0>        -0.5254
     18 C15         3.7950   -2.1299    1.9820 C.2       1 <0>         0.3710
     19 S1          2.7929   -3.2900    1.1134 S.3       1 <0>        -0.0098
     20 C16         2.5536   -4.6395    2.3017 C.3       1 <0>        -0.0705
     21 C17         1.7012   -5.7138    1.6768 C.2       1 <0>        -0.1487
     22 C18         2.2112   -6.9162    1.4496 C.2       1 <0>        -0.0775
     23 C19         1.3751   -7.9698    0.8367 C.ar      1 <0>        -0.0653
     24 C20         0.0504   -7.7005    0.4910 C.ar      1 <0>        -0.1099
     25 C21        -0.7247   -8.6884   -0.0807 C.ar      1 <0>        -0.1193
     26 C22        -0.1913   -9.9439   -0.3109 C.ar      1 <0>        -0.1149
     27 C23         1.1213  -10.2176    0.0301 C.ar      1 <0>        -0.1200
     28 C24         1.9090   -9.2364    0.5963 C.ar      1 <0>        -0.1035
     29 N3          7.2883    1.0993    6.1193 N.am      1 <0>        -0.6676
     30 C25         7.0971    1.2213    7.4478 C.2       1 <0>         0.5516
     31 O2          6.2951    0.5032    8.0158 O.2       1 <0>        -0.5249
     32 C26         7.8541    2.2175    8.2078 C.2       1 <0>        -0.2226
     33 C27         7.6629    2.3396    9.5368 C.2       1 <0>        -0.0021
     34 C28         8.4240    3.3413   10.3010 C.ar      1 <0>        -0.0842
     35 C29         9.3421    4.1721    9.6511 C.ar      1 <0>        -0.0987
     36 C30        10.0510    5.1084   10.3738 C.ar      1 <0>        -0.1230
     37 C31         9.8561    5.2268   11.7389 C.ar      1 <0>        -0.1044
     38 C32         8.9492    4.4081   12.3893 C.ar      1 <0>        -0.1229
     39 C33         8.2285    3.4710   11.6796 C.ar      1 <0>        -0.0913
     40 H1         -0.9814    1.8348    0.0473 H         1 <0>         0.1239
     41 H2          1.1226    3.1139    0.0244 H         1 <0>         0.1243
     42 H3          3.2820    1.9312   -0.0090 H         1 <0>         0.1284
     43 H4          1.2335   -1.8095   -0.0040 H         1 <0>         0.1331
     44 H5         -0.9260   -0.6268    0.0280 H         1 <0>         0.1259
     45 H6          3.5964   -1.6878   -0.5472 H         1 <0>         0.1075
     46 H7          4.4514   -0.1267   -0.5498 H         1 <0>         0.1136
     47 H8          6.4522    1.4735    3.6438 H         1 <0>         0.1422
     48 H9          6.3792   -1.2307    6.9566 H         1 <0>         0.1515
     49 H10         5.0021   -2.7992    5.6961 H         1 <0>         0.1434
     50 H11         3.5219   -5.0579    2.5762 H         1 <0>         0.1041
     51 H12         2.0580   -4.2551    3.1931 H         1 <0>         0.1110
     52 H13         0.6748   -5.5042    1.4141 H         1 <0>         0.1265
     53 H14         3.2376   -7.1258    1.7123 H         1 <0>         0.1247
     54 H15        -0.3674   -6.7209    0.6708 H         1 <0>         0.1254
     55 H16        -1.7502   -8.4812   -0.3489 H         1 <0>         0.1245
     56 H17        -0.8023  -10.7139   -0.7583 H         1 <0>         0.1233
     57 H18         1.5316  -11.2000   -0.1515 H         1 <0>         0.1248
     58 H19         2.9350   -9.4497    0.8573 H         1 <0>         0.1255
     59 H20         7.9738    1.6245    5.6777 H         1 <0>         0.4146
     60 H21         8.5657    2.8547    7.7038 H         1 <0>         0.1337
     61 H22         6.9512    1.7024   10.0408 H         1 <0>         0.1386
     62 H23         9.4959    4.0805    8.5861 H         1 <0>         0.1278
     63 H24        10.7604    5.7508    9.8734 H         1 <0>         0.1272
     64 H25        10.4148    5.9615   12.2996 H         1 <0>         0.1259
     65 H26         8.8026    4.5065   13.4548 H         1 <0>         0.1279
     66 H27         7.5182    2.8357   12.1878 H         1 <0>         0.1294
@<TRIPOS>BOND
     1    1    6 ar
     2    1    2 ar
     3    1   40 1
     4    2    3 ar
     5    2   41 1
     6    3    4 ar
     7    3   42 1
     8    4    5 ar
     9    4    7 1
    10    5    6 ar
    11    5   43 1
    12    6   44 1
    13    7    8 1
    14    7   45 1
    15    7   46 1
    16    8   18 1
    17    8    9 am
    18    9   10 2
    19    9   11 1
    20   11   16 ar
    21   11   12 ar
    22   12   13 ar
    23   12   47 1
    24   13   14 ar
    25   13   29 1
    26   14   15 ar
    27   14   48 1
    28   15   16 ar
    29   15   49 1
    30   16   17 1
    31   17   18 2
    32   18   19 1
    33   19   20 1
    34   20   21 1
    35   20   50 1
    36   20   51 1
    37   21   22 2
    38   21   52 1
    39   22   23 1
    40   22   53 1
    41   23   28 ar
    42   23   24 ar
    43   24   25 ar
    44   24   54 1
    45   25   26 ar
    46   25   55 1
    47   26   27 ar
    48   26   56 1
    49   27   28 ar
    50   27   57 1
    51   28   58 1
    52   29   30 am
    53   29   59 1
    54   30   31 2
    55   30   32 1
    56   32   33 2
    57   32   60 1
    58   33   34 1
    59   33   61 1
    60   34   39 ar
    61   34   35 ar
    62   35   36 ar
    63   35   62 1
    64   36   37 ar
    65   36   63 1
    66   37   38 ar
    67   37   64 1
    68   38   39 ar
    69   38   65 1
    70   39   66 1
@<TRIPOS>MOLECULE
CHEMBL280378
   49    51     0     0     0
SMALL
USER_CHARGES

@<TRIPOS>ATOM
      1 C1         -0.0187    1.5258    0.0104 C.3       1 <0>        -0.1527
      2 C2          0.0021   -0.0041    0.0020 C.3       1 <0>         0.0529
      3 O1         -1.3386   -0.4987    0.0122 O.3       1 <0>        -0.2991
      4 C3         -1.4984   -1.8488    0.0064 C.ar      1 <0>         0.1849
      5 C4         -0.3882   -2.6794   -0.0029 C.ar      1 <0>        -0.2321
      6 C5         -0.5495   -4.0523   -0.0088 C.ar      1 <0>         0.0132
      7 C6         -1.8170   -4.6038   -0.0054 C.ar      1 <0>        -0.2379
      8 C7         -2.9333   -3.7815    0.0035 C.ar      1 <0>         0.1849
      9 C8         -2.7761   -2.3992    0.0157 C.ar      1 <0>         0.0360
     10 N1         -3.9042   -1.5617    0.0310 N.pl3     1 <0>        -0.3808
     11 C9         -4.2508   -0.7122    1.0416 C.2       1 <0>         0.0016
     12 C10        -5.3906   -0.0820    0.6902 C.2       1 <0>        -0.2005
     13 C11        -5.7618   -0.5586   -0.5827 C.2       1 <0>        -0.2005
     14 C12        -4.8320   -1.4583   -0.9647 C.2       1 <0>         0.0013
     15 O2         -4.1794   -4.3251    0.0059 O.3       1 <0>        -0.2983
     16 C13        -4.2650   -5.7515   -0.0010 C.3       1 <0>         0.0531
     17 C14        -5.7354   -6.1743    0.0029 C.3       1 <0>        -0.1530
     18 C15         0.6605   -4.9506   -0.0194 C.3       1 <0>        -0.0183
     19 C16         1.0711   -5.2569    1.3978 C.ar      1 <0>        -0.3101
     20 C17         2.0426   -4.5054    2.0299 C.ar      1 <0>         0.2259
     21 N2          2.3810   -4.7999    3.2765 N.ar      1 <0>        -0.6039
     22 C18         1.8012   -5.8020    3.9209 C.ar      1 <0>         0.6040
     23 N3          0.8662   -6.5466    3.3505 N.ar      1 <0>        -0.6261
     24 C19         0.4741   -6.3034    2.1039 C.ar      1 <0>         0.4900
     25 N4         -0.5083   -7.0802    1.5119 N.pl3     1 <0>        -0.8361
     26 N5          2.1826   -6.0778    5.2224 N.pl3     1 <0>        -0.8202
     27 H1          1.0039    1.9031    0.0027 H         1 <0>         0.0815
     28 H2         -0.5459    1.8868   -0.8726 H         1 <0>         0.0677
     29 H3         -0.5289    1.8773    0.9072 H         1 <0>         0.0678
     30 H4          0.5123   -0.3556   -0.8948 H         1 <0>         0.0662
     31 H5          0.5293   -0.3651    0.8851 H         1 <0>         0.0659
     32 H6          0.6041   -2.2531   -0.0059 H         1 <0>         0.1392
     33 H7         -1.9379   -5.6770   -0.0100 H         1 <0>         0.1308
     34 H8         -3.7067   -0.5696    1.9635 H         1 <0>         0.1534
     35 H9         -5.9216    0.6528    1.2772 H         1 <0>         0.1346
     36 H10        -6.6295   -0.2563   -1.1502 H         1 <0>         0.1347
     37 H11        -4.8244   -2.0044   -1.8965 H         1 <0>         0.1542
     38 H12        -3.7775   -6.1404   -0.8951 H         1 <0>         0.0649
     39 H13        -3.7701   -6.1495    0.8849 H         1 <0>         0.0635
     40 H14        -6.2228   -5.7854    0.8969 H         1 <0>         0.0680
     41 H15        -6.2303   -5.7763   -0.8830 H         1 <0>         0.0689
     42 H16        -5.8006   -7.2623   -0.0024 H         1 <0>         0.0812
     43 H17         0.4190   -5.8792   -0.5365 H         1 <0>         0.0792
     44 H18         1.4801   -4.4501   -0.5350 H         1 <0>         0.0924
     45 H19         2.5214   -3.6867    1.5133 H         1 <0>         0.1635
     46 H20        -0.7861   -6.8991    0.6004 H         1 <0>         0.4077
     47 H21        -0.9183   -7.8054    2.0089 H         1 <0>         0.4071
     48 H22         2.8665   -5.5402    5.6516 H         1 <0>         0.4159
     49 H23         1.7661   -6.8087    5.7053 H         1 <0>         0.4136
@<TRIPOS>BOND
     1    1    2 1
     2    1   27 1
     3    1   28 1
     4    1   29 1
     5    2    3 1
     6    2   30 1
     7    2   31 1
     8    3    4 1
     9    4    9 ar
    10    4    5 ar
    11    5    6 ar
    12    5   32 1
    13    6    7 ar
    14    6   18 1
    15    7    8 ar
    16    7   33 1
    17    8    9 ar
    18    8   15 1
    19    9   10 1
    20   10   14 1
    21   10   11 1
    22   11   12 2
    23   11   34 1
    24   12   13 1
    25   12   35 1
    26   13   14 2
    27   13   36 1
    28   14   37 1
    29   15   16 1
    30   16   17 1
    31   16   38 1
    32   16   39 1
    33   17   40 1
    34   17   41 1
    35   17   42 1
    36   18   19 1
    37   18   43 1
    38   18   44 1
    39   19   24 ar
    40   19   20 ar
    41   20   21 ar
    42   20   45 1
    43   21   22 ar
    44   22   23 ar
    45   22   26 1
    46   23   24 ar
    47   24   25 1
    48   25   46 1
    49   25   47 1
    50   26   48 1
    51   26   49 1
@<TRIPOS>MOLECULE
CHEMBL280378__1
   50    52     0     0     0
SMALL
USER_CHARGES

@<TRIPOS>ATOM
      1 C1         -0.0187    1.5258    0.0104 C.3       1 <0>        -0.1567
      2 C2          0.0021   -0.0041    0.0020 C.3       1 <0>         0.0549
      3 O1          0.6709   -0.4649   -1.1737 O.3       1 <0>        -0.2938
      4 C3          0.7768   -1.8106   -1.3362 C.ar      1 <0>         0.1890
      5 C4          0.2430   -2.6687   -0.3869 C.ar      1 <0>        -0.2333
      6 C5          0.3501   -4.0371   -0.5511 C.ar      1 <0>        -0.0127
      7 C6          0.9891   -4.5567   -1.6612 C.ar      1 <0>        -0.2408
      8 C7          1.5265   -3.7066   -2.6157 C.ar      1 <0>         0.1904
      9 C8          1.4159   -2.3287   -2.4581 C.ar      1 <0>         0.0537
     10 N1          1.9533   -1.4632   -3.4258 N.pl3     1 <0>        -0.3905
     11 C9          1.2381   -0.6089   -4.2141 C.2       1 <0>        -0.0030
     12 C10         2.1022    0.0510   -5.0127 C.2       1 <0>        -0.1922
     13 C11         3.3975   -0.4117   -4.7073 C.2       1 <0>        -0.1932
     14 C12         3.2776   -1.3331   -3.7291 C.2       1 <0>         0.0007
     15 O2          2.1556   -4.2188   -3.7067 O.3       1 <0>        -0.2927
     16 C13         2.2266   -5.6426   -3.8058 C.3       1 <0>         0.0538
     17 C14         2.9646   -6.0283   -5.0894 C.3       1 <0>        -0.1567
     18 C15        -0.2313   -4.9654    0.4839 C.3       1 <0>        -0.0315
     19 C16        -1.6592   -5.2870    0.1248 C.ar      1 <0>        -0.2243
     20 C17        -2.7037   -4.5623    0.6649 C.ar      1 <0>         0.2118
     21 N2         -3.9478   -4.8695    0.3287 N.ar      1 <0>        -0.5698
     22 C18        -4.2007   -5.8593   -0.5151 C.ar      1 <0>         0.6628
     23 N3         -3.2279   -6.5782   -1.0543 N.ar      1 <0>        -0.5717
     24 C19        -1.9560   -6.3205   -0.7661 C.ar      1 <0>         0.5374
     25 N4         -0.9403   -7.0704   -1.3362 N.pl3     1 <0>        -0.7792
     26 N5         -5.5141   -6.1494   -0.8407 N.pl3     1 <0>        -0.7900
     27 H1          1.0039    1.9031    0.0027 H         1 <0>         0.0718
     28 H2         -0.5459    1.8868   -0.8726 H         1 <0>         0.0697
     29 H3         -0.5289    1.8773    0.9072 H         1 <0>         0.0840
     30 H4          0.5293   -0.3651    0.8851 H         1 <0>         0.0680
     31 H5         -1.0205   -0.3814    0.0098 H         1 <0>         0.0619
     32 H6         -0.2568   -2.2675    0.4823 H         1 <0>         0.1405
     33 H7          1.0703   -5.6265   -1.7851 H         1 <0>         0.1293
     34 H8          0.1655   -0.4831   -4.2011 H         1 <0>         0.1541
     35 H9          1.8477    0.7968   -5.7512 H         1 <0>         0.1381
     36 H10         4.3179   -0.0857   -5.1687 H         1 <0>         0.1387
     37 H11         4.0893   -1.8759   -3.2677 H         1 <0>         0.1567
     38 H12         2.7633   -6.0404   -2.9446 H         1 <0>         0.0671
     39 H13         1.2183   -6.0559   -3.8282 H         1 <0>         0.0605
     40 H14         3.9729   -5.6149   -5.0670 H         1 <0>         0.0727
     41 H15         3.0187   -7.1143   -5.1650 H         1 <0>         0.0844
     42 H16         2.4278   -5.6304   -5.9506 H         1 <0>         0.0703
     43 H17         0.3516   -5.8859    0.5148 H         1 <0>         0.1011
     44 H18        -0.2021   -4.4839    1.4613 H         1 <0>         0.1147
     45 H19        -2.5083   -3.7541    1.3541 H         1 <0>         0.2150
     46 H20        -0.0148   -6.8792   -1.1174 H         1 <0>         0.4274
     47 H21        -1.1545   -7.7868   -1.9541 H         1 <0>         0.4291
     48 H22        -6.2360   -5.6307   -0.4525 H         1 <0>         0.4313
     49 H23        -5.7128   -6.8715   -1.4572 H         1 <0>         0.4455
     50 H24        -4.6840   -4.3629    0.7059 H         1 <0>         0.4455
@<TRIPOS>BOND
     1    1    2 1
     2    1   27 1
     3    1   28 1
     4    1   29 1
     5    2    3 1
     6    2   30 1
     7    2   31 1
     8    3    4 1
     9    4    9 ar
    10    4    5 ar
    11    5    6 ar
    12    5   32 1
    13    6    7 ar
    14    6   18 1
    15    7    8 ar
    16    7   33 1
    17    8    9 ar
    18    8   15 1
    19    9   10 1
    20   10   14 1
    21   10   11 1
    22   11   12 2
    23   11   34 1
    24   12   13 1
    25   12   35 1
    26   13   14 2
    27   13   36 1
    28   14   37 1
    29   15   16 1
    30   16   17 1
    31   16   38 1
    32   16   39 1
    33   17   40 1
    34   17   41 1
    35   17   42 1
    36   18   19 1
    37   18   43 1
    38   18   44 1
    39   19   24 ar
    40   19   20 ar
    41   20   21 ar
    42   20   45 1
    43   21   22 ar
    44   21   50 1
    45   22   23 ar
    46   22   26 1
    47   23   24 ar
    48   24   25 1
    49   25   46 1
    50   25   47 1
    51   26   48 1
    52   26   49 1
@<TRIPOS>MOLECULE
CHEMBL58597
   49    52     0     0     0
SMALL
USER_CHARGES

@<TRIPOS>ATOM
      1 C1          3.1335   -4.2882   -1.3426 C.3       1 <0>         0.0219
      2 O1          2.5843   -3.5569   -0.2445 O.3       1 <0>        -0.2930
      3 C2          2.4109   -2.2193   -0.4186 C.ar      1 <0>         0.1897
      4 C3          2.7569   -1.6264   -1.6225 C.ar      1 <0>        -0.2788
      5 C4          2.5798   -0.2606   -1.8004 C.ar      1 <0>         0.2320
      6 C5          2.0561    0.5120   -0.7722 C.ar      1 <0>        -0.2794
      7 C6          1.7094   -0.0798    0.4321 C.ar      1 <0>         0.1895
      8 C7          1.8814   -1.4476    0.6089 C.ar      1 <0>         0.0097
      9 O2          1.5366   -2.0304    1.7903 O.3       1 <0>        -0.3083
     10 C8          2.5459   -2.0973    2.7997 C.3       1 <0>         0.0336
     11 O3          1.1965    0.6770    1.4390 O.3       1 <0>        -0.2931
     12 C9          1.0425    2.0749    1.1860 C.3       1 <0>         0.0224
     13 N1          2.9296    0.3373   -3.0157 N.pl3     1 <0>        -0.5438
     14 C10         3.5946   -0.4513   -4.0603 C.3       1 <0>         0.1613
     15 C11         4.7297    0.3579   -4.6321 C.ar      1 <0>        -0.2055
     16 C12         5.8409   -0.2499   -5.1793 C.ar      1 <0>         0.2342
     17 N2          6.8352    0.4546   -5.6834 N.ar      1 <0>        -0.5150
     18 C13         6.8230    1.7886   -5.6954 C.ar      1 <0>         0.4122
     19 C14         5.7189    2.4921   -5.1528 C.ar      1 <0>        -0.2456
     20 C15         4.6493    1.7542   -4.6053 C.ar      1 <0>         0.1420
     21 C16         3.4756    2.3999   -4.0132 C.2       1 <0>        -0.2899
     22 C17         2.6461    1.6677   -3.2391 C.2       1 <0>         0.2132
     23 C18         5.7344    3.9015   -5.1809 C.ar      1 <0>         0.5883
     24 N3          6.7866    4.5101   -5.7145 N.ar      1 <0>        -0.5761
     25 C19         7.8045    3.8159   -6.2124 C.ar      1 <0>         0.6955
     26 N4          7.8378    2.4959   -6.2118 N.ar      1 <0>        -0.5708
     27 N5          8.8731    4.5047   -6.7545 N.pl3     1 <0>        -0.7798
     28 N6          4.6822    4.6300   -4.6671 N.pl3     1 <0>        -0.8215
     29 H1          2.4799   -4.1879   -2.2091 H         1 <0>         0.0606
     30 H2          4.1205   -3.8939   -1.5844 H         1 <0>         0.0570
     31 H3          3.2190   -5.3405   -1.0718 H         1 <0>         0.1095
     32 H4          3.1645   -2.2267   -2.4225 H         1 <0>         0.1421
     33 H5          1.9193    1.5743   -0.9109 H         1 <0>         0.1400
     34 H6          3.3948   -2.6705    2.4271 H         1 <0>         0.0449
     35 H7          2.8720   -1.0890    3.0547 H         1 <0>         0.0449
     36 H8          2.1406   -2.5834    3.6871 H         1 <0>         0.0969
     37 H9          0.6248    2.5599    2.0683 H         1 <0>         0.1091
     38 H10         2.0144    2.5120    0.9570 H         1 <0>         0.0573
     39 H11         0.3707    2.2192    0.3399 H         1 <0>         0.0597
     40 H12         3.9843   -1.3735   -3.6294 H         1 <0>         0.1143
     41 H13         2.8808   -0.6878   -4.8495 H         1 <0>         0.1010
     42 H14         5.8980   -1.3283   -5.1948 H         1 <0>         0.1905
     43 H15         3.2742    3.4452   -4.1956 H         1 <0>         0.1684
     44 H16         1.7707    2.1192   -2.7962 H         1 <0>         0.1693
     45 H17         8.8694    5.4746   -6.7660 H         1 <0>         0.4476
     46 H18         9.6268    4.0182   -7.1236 H         1 <0>         0.4329
     47 H19         4.3473    4.4369   -3.7775 H         1 <0>         0.4352
     48 H20         4.2771    5.3356   -5.1953 H         1 <0>         0.4292
     49 H21         8.6038    2.0341   -6.5872 H         1 <0>         0.4446
@<TRIPOS>BOND
     1    1    2 1
     2    1   29 1
     3    1   30 1
     4    1   31 1
     5    2    3 1
     6    3    8 ar
     7    3    4 ar
     8    4    5 ar
     9    4   32 1
    10    5    6 ar
    11    5   13 1
    12    6    7 ar
    13    6   33 1
    14    7    8 ar
    15    7   11 1
    16    8    9 1
    17    9   10 1
    18   10   34 1
    19   10   35 1
    20   10   36 1
    21   11   12 1
    22   12   37 1
    23   12   38 1
    24   12   39 1
    25   13   22 1
    26   13   14 1
    27   14   15 1
    28   14   40 1
    29   14   41 1
    30   15   20 ar
    31   15   16 ar
    32   16   17 ar
    33   16   42 1
    34   17   18 ar
    35   18   26 ar
    36   18   19 ar
    37   19   20 ar
    38   19   23 ar
    39   20   21 1
    40   21   22 2
    41   21   43 1
    42   22   44 1
    43   23   24 ar
    44   23   28 1
    45   24   25 ar
    46   25   26 ar
    47   25   27 1
    48   26   49 1
    49   27   45 1
    50   27   46 1
    51   28   47 1
    52   28   48 1
@<TRIPOS>MOLECULE
CHEMBL58597__1
   49    52     0     0     0
SMALL
USER_CHARGES

@<TRIPOS>ATOM
      1 C1         -2.6186   -4.3623   -2.0242 C.3       1 <0>         0.0219
      2 O1         -1.4119   -3.6006   -2.1002 O.3       1 <0>        -0.2919
      3 C2         -1.5096   -2.2643   -1.8675 C.ar      1 <0>         0.1887
      4 C3         -2.7398   -1.7012   -1.5670 C.ar      1 <0>        -0.2755
      5 C4         -2.8397   -0.3367   -1.3293 C.ar      1 <0>         0.2241
      6 C5         -1.7072    0.4645   -1.3925 C.ar      1 <0>        -0.2755
      7 C6         -0.4763   -0.0974   -1.6925 C.ar      1 <0>         0.1900
      8 C7         -0.3748   -1.4639   -1.9253 C.ar      1 <0>         0.0151
      9 O2          0.8350   -2.0174   -2.2154 O.3       1 <0>        -0.3082
     10 C8          1.2062   -2.0796   -3.5940 C.3       1 <0>         0.0336
     11 O3          0.6326    0.6873   -1.7544 O.3       1 <0>        -0.2919
     12 C9          0.4555    2.0821   -1.4992 C.3       1 <0>         0.0215
     13 N1         -4.0817    0.2311   -1.0266 N.pl3     1 <0>        -0.5385
     14 C10        -5.2986   -0.5885   -1.0774 C.3       1 <0>         0.1651
     15 C11        -6.3814    0.1913   -1.7772 C.ar      1 <0>        -0.2206
     16 C12        -7.3952   -0.4446   -2.4639 C.ar      1 <0>         0.2325
     17 N2         -8.3464    0.2342   -3.0752 N.ar      1 <0>        -0.4995
     18 C13        -8.3840    1.5677   -3.0635 C.ar      1 <0>         0.4522
     19 C14        -7.3801    2.2990   -2.3810 C.ar      1 <0>        -0.2665
     20 C15        -6.3532    1.5890   -1.7257 C.ar      1 <0>         0.2011
     21 C16        -5.2702    2.2646   -1.0075 C.2       1 <0>        -0.2943
     22 C17        -4.1669    1.5610   -0.6738 C.2       1 <0>         0.2348
     23 C18        -7.4475    3.7072   -2.3856 C.ar      1 <0>         0.5616
     24 N3         -8.4504    4.2885   -3.0323 N.ar      1 <0>        -0.5960
     25 C19        -9.3727    3.5688   -3.6625 C.ar      1 <0>         0.6641
     26 N4         -9.3558    2.2487   -3.6869 N.ar      1 <0>        -0.6147
     27 N5        -10.3933    4.2299   -4.3195 N.pl3     1 <0>        -0.7785
     28 N6         -6.4951    4.4621   -1.7338 N.pl3     1 <0>        -0.8382
     29 H1         -2.4004   -5.4102   -2.2301 H         1 <0>         0.1102
     30 H2         -3.0446   -4.2693   -1.0252 H         1 <0>         0.0608
     31 H3         -3.3312   -3.9883   -2.7594 H         1 <0>         0.0564
     32 H4         -3.6210   -2.3237   -1.5180 H         1 <0>         0.1424
     33 H5         -1.7857    1.5258   -1.2083 H         1 <0>         0.1415
     34 H6          0.4737   -2.6733   -4.1410 H         1 <0>         0.0454
     35 H7          1.2385   -1.0715   -4.0074 H         1 <0>         0.0458
     36 H8          2.1893   -2.5414   -3.6851 H         1 <0>         0.0981
     37 H9          1.4159    2.5912   -1.5803 H         1 <0>         0.1105
     38 H10        -0.2396    2.4993   -2.2278 H         1 <0>         0.0582
     39 H11         0.0550    2.2197   -0.4948 H         1 <0>         0.0605
     40 H12        -5.0971   -1.5078   -1.6273 H         1 <0>         0.1175
     41 H13        -5.6191   -0.8297   -0.0639 H         1 <0>         0.1082
     42 H14        -7.4100   -1.5238   -2.5019 H         1 <0>         0.2113
     43 H15        -5.3537    3.3089   -0.7454 H         1 <0>         0.1790
     44 H16        -3.3573    2.0348   -0.1387 H         1 <0>         0.1762
     45 H17       -10.4256    5.1993   -4.3140 H         1 <0>         0.4309
     46 H18       -11.0772    3.7244   -4.7860 H         1 <0>         0.4289
     47 H19        -5.5526    4.2919   -1.8875 H         1 <0>         0.4267
     48 H20        -6.7676    5.1634   -1.1215 H         1 <0>         0.4247
     49 H21        -9.0401   -0.2512   -3.5485 H         1 <0>         0.4502
@<TRIPOS>BOND
     1    1    2 1
     2    1   29 1
     3    1   30 1
     4    1   31 1
     5    2    3 1
     6    3    8 ar
     7    3    4 ar
     8    4    5 ar
     9    4   32 1
    10    5    6 ar
    11    5   13 1
    12    6    7 ar
    13    6   33 1
    14    7    8 ar
    15    7   11 1
    16    8    9 1
    17    9   10 1
    18   10   34 1
    19   10   35 1
    20   10   36 1
    21   11   12 1
    22   12   37 1
    23   12   38 1
    24   12   39 1
    25   13   22 1
    26   13   14 1
    27   14   15 1
    28   14   40 1
    29   14   41 1
    30   15   20 ar
    31   15   16 ar
    32   16   17 ar
    33   16   42 1
    34   17   18 ar
    35   17   49 1
    36   18   26 ar
    37   18   19 ar
    38   19   20 ar
    39   19   23 ar
    40   20   21 1
    41   21   22 2
    42   21   43 1
    43   22   44 1
    44   23   24 ar
    45   23   28 1
    46   24   25 ar
    47   25   26 ar
    48   25   27 1
    49   27   45 1
    50   27   46 1
    51   28   47 1
    52   28   48 1
@<TRIPOS>MOLECULE
CHEMBL58597__2
   48    51     0     0     0
SMALL
USER_CHARGES

@<TRIPOS>ATOM
      1 C1         -2.6199   -4.3628   -2.0186 C.3       1 <0>         0.0226
      2 O1         -1.4131   -3.6014   -2.0945 O.3       1 <0>        -0.2974
      3 C2         -1.5106   -2.2650   -1.8625 C.ar      1 <0>         0.1905
      4 C3         -2.7408   -1.7015   -1.5627 C.ar      1 <0>        -0.2883
      5 C4         -2.8406   -0.3368   -1.3258 C.ar      1 <0>         0.2547
      6 C5         -1.7080    0.4641   -1.3891 C.ar      1 <0>        -0.2880
      7 C6         -0.4771   -0.0982   -1.6883 C.ar      1 <0>         0.1896
      8 C7         -0.3757   -1.4648   -1.9204 C.ar      1 <0>        -0.0072
      9 O2          0.8341   -2.0186   -2.2099 O.3       1 <0>        -0.3091
     10 C8          1.2057   -2.0815   -3.5883 C.3       1 <0>         0.0333
     11 O3          0.6320    0.6864   -1.7503 O.3       1 <0>        -0.2975
     12 C9          0.4549    2.0813   -1.4959 C.3       1 <0>         0.0235
     13 N1         -4.0827    0.2313   -1.0237 N.pl3     1 <0>        -0.5493
     14 C10        -5.2997   -0.5882   -1.0745 C.3       1 <0>         0.1731
     15 C11        -6.3821    0.1914   -1.7750 C.ar      1 <0>        -0.2340
     16 C12        -7.3953   -0.4446   -2.4625 C.ar      1 <0>         0.2074
     17 N2         -8.3457    0.2340   -3.0752 N.ar      1 <0>        -0.4974
     18 C13        -8.3833    1.5675   -3.0639 C.ar      1 <0>         0.4151
     19 C14        -7.3801    2.2990   -2.3806 C.ar      1 <0>        -0.2724
     20 C15        -6.3537    1.5891   -1.7243 C.ar      1 <0>         0.1079
     21 C16        -5.2708    2.2649   -1.0061 C.2       1 <0>        -0.2460
     22 C17        -4.1678    1.5614   -0.6717 C.2       1 <0>         0.1544
     23 C18        -7.4474    3.7071   -2.3856 C.ar      1 <0>         0.5273
     24 N3         -8.4498    4.2883   -3.0334 N.ar      1 <0>        -0.6097
     25 C19        -9.3716    3.5684   -3.6642 C.ar      1 <0>         0.6195
     26 N4         -9.3546    2.2483   -3.6883 N.ar      1 <0>        -0.5878
     27 N5        -10.3915    4.2293   -4.3223 N.pl3     1 <0>        -0.8115
     28 N6         -6.4956    4.4623   -1.7332 N.pl3     1 <0>        -0.8563
     29 H1         -2.4018   -5.4109   -2.2238 H         1 <0>         0.1055
     30 H2         -3.0463   -4.2693   -1.0198 H         1 <0>         0.0596
     31 H3         -3.3322   -3.9891   -2.7541 H         1 <0>         0.0580
     32 H4         -3.6222   -2.3239   -1.5137 H         1 <0>         0.1412
     33 H5         -1.7864    1.5255   -1.2054 H         1 <0>         0.1384
     34 H6          2.1887   -2.5436   -3.6789 H         1 <0>         0.0920
     35 H7          0.4733   -2.6754   -4.1352 H         1 <0>         0.0432
     36 H8          1.2383   -1.0737   -4.0022 H         1 <0>         0.0429
     37 H9         -0.2398    2.4983   -2.2249 H         1 <0>         0.0576
     38 H10         0.0542    2.2195   -0.4917 H         1 <0>         0.0586
     39 H11         1.4154    2.5902   -1.5770 H         1 <0>         0.1049
     40 H12        -5.0981   -1.5078   -1.6239 H         1 <0>         0.1006
     41 H13        -5.6205   -0.8289   -0.0610 H         1 <0>         0.0840
     42 H14        -7.4103   -1.5239   -2.4999 H         1 <0>         0.1666
     43 H15        -5.3543    3.3094   -0.7445 H         1 <0>         0.1628
     44 H16        -3.3582    2.0353   -0.1366 H         1 <0>         0.1548
     45 H17       -10.4239    5.1988   -4.3171 H         1 <0>         0.4161
     46 H18       -11.0751    3.7237   -4.7892 H         1 <0>         0.4185
     47 H19        -5.5530    4.2923   -1.8865 H         1 <0>         0.4172
     48 H20        -6.7687    5.1634   -1.1210 H         1 <0>         0.4103
@<TRIPOS>BOND
     1    1    2 1
     2    1   29 1
     3    1   30 1
     4    1   31 1
     5    2    3 1
     6    3    8 ar
     7    3    4 ar
     8    4    5 ar
     9    4   32 1
    10    5    6 ar
    11    5   13 1
    12    6    7 ar
    13    6   33 1
    14    7    8 ar
    15    7   11 1
    16    8    9 1
    17    9   10 1
    18   10   34 1
    19   10   35 1
    20   10   36 1
    21   11   12 1
    22   12   37 1
    23   12   38 1
    24   12   39 1
    25   13   22 1
    26   13   14 1
    27   14   15 1
    28   14   40 1
    29   14   41 1
    30   15   20 ar
    31   15   16 ar
    32   16   17 ar
    33   16   42 1
    34   17   18 ar
    35   18   26 ar
    36   18   19 ar
    37   19   20 ar
    38   19   23 ar
    39   20   21 1
    40   21   22 2
    41   21   43 1
    42   22   44 1
    43   23   24 ar
    44   23   28 1
    45   24   25 ar
    46   25   26 ar
    47   25   27 1
    48   27   45 1
    49   27   46 1
    50   28   47 1
    51   28   48 1
@<TRIPOS>MOLECULE
CHEMBL150082
   49    53     0     0     0
SMALL
USER_CHARGES

@<TRIPOS>ATOM
      1 C1          0.6027    1.5059    0.0256 C.3       1 <0>        -0.1678
      2 C2          0.5978   -0.0011    0.0167 C.ar      1 <0>         0.0773
      3 C3          0.7711   -0.7002   -1.1492 C.ar      1 <0>        -0.1738
      4 C4          0.7631   -2.0894   -1.1308 C.ar      1 <0>         0.2399
      5 N1          0.5923   -2.7658   -0.0167 N.ar      1 <0>        -0.4987
      6 C5          0.4186   -2.1439    1.1496 C.ar      1 <0>         0.4076
      7 C6          0.4219   -0.7279    1.1996 C.ar      1 <0>        -0.2408
      8 C7          0.2403   -0.0941    2.4537 C.ar      1 <0>         0.5786
      9 N2          0.0801   -0.8575    3.5253 N.ar      1 <0>        -0.5782
     10 C8          0.0882   -2.1844    3.4357 C.ar      1 <0>         0.6996
     11 N3          0.2432   -2.8239    2.2916 N.ar      1 <0>        -0.5724
     12 N4         -0.0838   -2.9256    4.5891 N.pl3     1 <0>        -0.7769
     13 N5          0.2308    1.2796    2.5567 N.pl3     1 <0>        -0.8022
     14 C9          0.9696    0.0364   -2.4489 C.3       1 <0>         0.1681
     15 N6          2.3622    0.4797   -2.5512 N.pl3     1 <0>        -0.7481
     16 C10         2.7881    1.1881   -3.6757 C.ar      1 <0>         0.2145
     17 C11         1.8900    1.4786   -4.6966 C.ar      1 <0>        -0.1924
     18 C12         2.3071    2.1781   -5.8076 C.ar      1 <0>        -0.0465
     19 C13         3.6355    2.5980   -5.9124 C.ar      1 <0>        -0.1024
     20 C14         4.5302    2.3038   -4.8862 C.ar      1 <0>        -0.0404
     21 C15         4.1096    1.6092   -3.7736 C.ar      1 <0>        -0.1715
     22 C16         5.8716    2.8763   -5.2744 C.3       1 <0>        -0.0451
     23 C17         5.6724    3.5295   -6.6201 C.ar      1 <0>        -0.0985
     24 C18         4.3387    3.3522   -6.9792 C.ar      1 <0>        -0.0521
     25 C19         3.8831    3.8660   -8.1946 C.ar      1 <0>        -0.1007
     26 C20         4.7523    4.5416   -9.0261 C.ar      1 <0>        -0.1168
     27 C21         6.0752    4.7125   -8.6606 C.ar      1 <0>        -0.1142
     28 C22         6.5338    4.2059   -7.4572 C.ar      1 <0>        -0.0997
     29 H1          1.5940    1.8644    0.3030 H         1 <0>         0.1067
     30 H2          0.3472    1.8760   -0.9673 H         1 <0>         0.1068
     31 H3         -0.1295    1.8674    0.7476 H         1 <0>         0.1057
     32 H4          0.9004   -2.6280   -2.0567 H         1 <0>         0.1947
     33 H5         -0.2071   -2.4769    5.4402 H         1 <0>         0.4484
     34 H6         -0.0814   -3.8947    4.5477 H         1 <0>         0.4340
     35 H7         -0.4109    1.7180    3.1371 H         1 <0>         0.4311
     36 H8          0.8658    1.8084    2.0488 H         1 <0>         0.4362
     37 H9          0.7374   -0.6273   -3.2818 H         1 <0>         0.0849
     38 H10         0.3092    0.9030   -2.4798 H         1 <0>         0.0850
     39 H11         2.9882    0.2808   -1.8374 H         1 <0>         0.3993
     40 H12         0.8627    1.1547   -4.6185 H         1 <0>         0.1244
     41 H13         1.6065    2.4018   -6.5985 H         1 <0>         0.1246
     42 H14         4.8072    1.3881   -2.9793 H         1 <0>         0.1222
     43 H15         6.1898    3.6171   -4.5410 H         1 <0>         0.1005
     44 H16         6.6119    2.0798   -5.3498 H         1 <0>         0.1009
     45 H17         2.8509    3.7345   -8.4840 H         1 <0>         0.1215
     46 H18         4.3984    4.9382   -9.9662 H         1 <0>         0.1271
     47 H19         6.7514    5.2419   -9.3155 H         1 <0>         0.1281
     48 H20         7.5672    4.3405   -7.1737 H         1 <0>         0.1249
     49 H21         0.2412   -3.7938    2.2786 H         1 <0>         0.4462
@<TRIPOS>BOND
     1    1    2 1
     2    1   29 1
     3    1   30 1
     4    1   31 1
     5    2    7 ar
     6    2    3 ar
     7    3    4 ar
     8    3   14 1
     9    4    5 ar
    10    4   32 1
    11    5    6 ar
    12    6   11 ar
    13    6    7 ar
    14    7    8 ar
    15    8    9 ar
    16    8   13 1
    17    9   10 ar
    18   10   11 ar
    19   10   12 1
    20   11   49 1
    21   12   33 1
    22   12   34 1
    23   13   35 1
    24   13   36 1
    25   14   15 1
    26   14   37 1
    27   14   38 1
    28   15   16 1
    29   15   39 1
    30   16   21 ar
    31   16   17 ar
    32   17   18 ar
    33   17   40 1
    34   18   19 ar
    35   18   41 1
    36   19   24 1
    37   19   20 ar
    38   20   21 ar
    39   20   22 1
    40   21   42 1
    41   22   23 1
    42   22   43 1
    43   22   44 1
    44   23   28 ar
    45   23   24 ar
    46   24   25 ar
    47   25   26 ar
    48   25   45 1
    49   26   27 ar
    50   26   46 1
    51   27   28 ar
    52   27   47 1
    53   28   48 1
@<TRIPOS>MOLECULE
CHEMBL150082__1
   48    52     0     0     0
SMALL
USER_CHARGES

@<TRIPOS>ATOM
      1 C1          0.6027    1.5059    0.0256 C.3       1 <0>        -0.1542
      2 C2          0.5978   -0.0011    0.0167 C.ar      1 <0>         0.0604
      3 C3          0.7711   -0.7002   -1.1492 C.ar      1 <0>        -0.2180
      4 C4          0.7631   -2.0894   -1.1308 C.ar      1 <0>         0.2101
      5 N1          0.5923   -2.7658   -0.0167 N.ar      1 <0>        -0.4894
      6 C5          0.4186   -2.1439    1.1496 C.ar      1 <0>         0.4166
      7 C6          0.4219   -0.7279    1.1996 C.ar      1 <0>        -0.2827
      8 C7          0.2403   -0.0941    2.4537 C.ar      1 <0>         0.5248
      9 N2          0.0801   -0.8575    3.5253 N.ar      1 <0>        -0.6169
     10 C8          0.0882   -2.1844    3.4357 C.ar      1 <0>         0.6255
     11 N3          0.2432   -2.8239    2.2916 N.ar      1 <0>        -0.5914
     12 N4         -0.0838   -2.9256    4.5891 N.pl3     1 <0>        -0.8100
     13 N5          0.2308    1.2796    2.5567 N.pl3     1 <0>        -0.8449
     14 C9          0.9696    0.0364   -2.4489 C.3       1 <0>         0.1777
     15 N6          2.3622    0.4797   -2.5512 N.pl3     1 <0>        -0.7408
     16 C10         2.7881    1.1881   -3.6757 C.ar      1 <0>         0.2281
     17 C11         1.8900    1.4786   -4.6966 C.ar      1 <0>        -0.1972
     18 C12         2.3071    2.1781   -5.8076 C.ar      1 <0>        -0.0429
     19 C13         3.6355    2.5980   -5.9124 C.ar      1 <0>        -0.1197
     20 C14         4.5302    2.3038   -4.8862 C.ar      1 <0>        -0.0386
     21 C15         4.1096    1.6092   -3.7736 C.ar      1 <0>        -0.1795
     22 C16         5.8716    2.8763   -5.2744 C.3       1 <0>        -0.0439
     23 C17         5.6724    3.5295   -6.6201 C.ar      1 <0>        -0.1007
     24 C18         4.3387    3.3522   -6.9792 C.ar      1 <0>        -0.0413
     25 C19         3.8831    3.8660   -8.1946 C.ar      1 <0>        -0.1052
     26 C20         4.7523    4.5416   -9.0261 C.ar      1 <0>        -0.1176
     27 C21         6.0752    4.7125   -8.6606 C.ar      1 <0>        -0.1210
     28 C22         6.5338    4.2059   -7.4572 C.ar      1 <0>        -0.0996
     29 H1          1.5940    1.8644    0.3030 H         1 <0>         0.0870
     30 H2          0.3472    1.8760   -0.9673 H         1 <0>         0.0859
     31 H3         -0.1295    1.8674    0.7476 H         1 <0>         0.0994
     32 H4          0.9004   -2.6280   -2.0567 H         1 <0>         0.1677
     33 H5         -0.2071   -2.4769    5.4402 H         1 <0>         0.4165
     34 H6         -0.0814   -3.8947    4.5477 H         1 <0>         0.4191
     35 H7         -0.4109    1.7180    3.1371 H         1 <0>         0.4110
     36 H8          0.8658    1.8084    2.0488 H         1 <0>         0.4185
     37 H9          0.7374   -0.6273   -3.2818 H         1 <0>         0.0739
     38 H10         0.3092    0.9030   -2.4798 H         1 <0>         0.0737
     39 H11         2.9882    0.2808   -1.8374 H         1 <0>         0.4003
     40 H12         0.8627    1.1547   -4.6185 H         1 <0>         0.1252
     41 H13         1.6065    2.4018   -6.5985 H         1 <0>         0.1214
     42 H14         4.8072    1.3881   -2.9793 H         1 <0>         0.1216
     43 H15         6.1898    3.6171   -4.5410 H         1 <0>         0.0988
     44 H16         6.6119    2.0798   -5.3498 H         1 <0>         0.0992
     45 H17         2.8509    3.7345   -8.4840 H         1 <0>         0.1206
     46 H18         4.3984    4.9382   -9.9662 H         1 <0>         0.1244
     47 H19         6.7514    5.2419   -9.3155 H         1 <0>         0.1253
     48 H20         7.5672    4.3405   -7.1737 H         1 <0>         0.1229
@<TRIPOS>BOND
     1    1    2 1
     2    1   29 1
     3    1   30 1
     4    1   31 1
     5    2    7 ar
     6    2    3 ar
     7    3    4 ar
     8    3   14 1
     9    4    5 ar
    10    4   32 1
    11    5    6 ar
    12    6   11 ar
    13    6    7 ar
    14    7    8 ar
    15    8    9 ar
    16    8   13 1
    17    9   10 ar
    18   10   11 ar
    19   10   12 1
    20   12   33 1
    21   12   34 1
    22   13   35 1
    23   13   36 1
    24   14   15 1
    25   14   37 1
    26   14   38 1
    27   15   16 1
    28   15   39 1
    29   16   21 ar
    30   16   17 ar
    31   17   18 ar
    32   17   40 1
    33   18   19 ar
    34   18   41 1
    35   19   24 1
    36   19   20 ar
    37   20   21 ar
    38   20   22 1
    39   21   42 1
    40   22   23 1
    41   22   43 1
    42   22   44 1
    43   23   28 ar
    44   23   24 ar
    45   24   25 ar
    46   25   26 ar
    47   25   45 1
    48   26   27 ar
    49   26   46 1
    50   27   28 ar
    51   27   47 1
    52   28   48 1
@<TRIPOS>MOLECULE
CHEMBL30370
   51    53     0     0     0
SMALL
USER_CHARGES

@<TRIPOS>ATOM
      1 C1          2.5365   -0.7487   -0.3545 C.3       1 <0>        -0.1712
      2 C2          1.1959   -1.3047    0.1296 C.3       1 <0>         0.4015
      3 N1          0.1952   -1.1814   -0.9368 N.pl3     1 <0>        -0.6963
      4 C3         -1.0582   -0.9579   -0.6435 C.cat     1 <0>         0.7285
      5 N2         -1.4741   -0.7894    0.6231 N.2       1 <0>        -0.6382
      6 C4         -0.6090   -0.5909    1.6007 C.2       1 <0>         0.7303
      7 N3          0.7297   -0.5330    1.2920 N.pl3     1 <0>        -0.5877
      8 C5          1.6177    0.2343    2.0569 C.ar      1 <0>         0.0455
      9 C6          1.7471    1.5952    1.8135 C.ar      1 <0>        -0.0561
     10 C7          2.6224    2.3511    2.5682 C.ar      1 <0>        -0.1323
     11 C8          3.3725    1.7510    3.5689 C.ar      1 <0>         0.1646
     12 C9          3.2437    0.3915    3.8127 C.ar      1 <0>        -0.2000
     13 C10         2.3647   -0.3645    3.0626 C.ar      1 <0>        -0.0608
     14 O1          4.2348    2.4958    4.3111 O.3       1 <0>        -0.2792
     15 C11         4.9753    1.8129    5.3247 C.3       1 <0>         0.0395
     16 C12         5.8717    2.7921    6.0378 C.2       1 <0>         0.5183
     17 O2          5.8760    3.9599    5.7103 O.2       1 <0>        -0.5071
     18 N4          6.6685    2.3702    7.0396 N.am      1 <0>        -0.6128
     19 C13         6.6850    0.9574    7.4505 C.3       1 <0>         0.0676
     20 C14         8.1422    0.4831    7.4925 C.3       1 <0>         0.0454
     21 O3          8.9082    1.3862    8.2933 O.3       1 <0>        -0.3736
     22 C15         8.9632    2.7199    7.7815 C.3       1 <0>         0.0463
     23 C16         7.5523    3.3077    7.7505 C.3       1 <0>         0.0770
     24 N5         -1.0351   -0.4454    2.8917 N.pl3     1 <0>        -0.7701
     25 N6         -1.9833   -0.8924   -1.6659 N.pl3     1 <0>        -0.7926
     26 C17         1.3578   -2.7756    0.5184 C.3       1 <0>        -0.1803
     27 H1          3.2921   -0.8993    0.4166 H         1 <0>         0.1006
     28 H2          2.8377   -1.2674   -1.2645 H         1 <0>         0.0975
     29 H3          2.4349    0.3169   -0.5603 H         1 <0>         0.0831
     30 H4          1.1637    2.0624    1.0339 H         1 <0>         0.1352
     31 H5          2.7232    3.4096    2.3790 H         1 <0>         0.1494
     32 H6          3.8283   -0.0751    4.5917 H         1 <0>         0.1431
     33 H7          2.2612   -1.4221    3.2554 H         1 <0>         0.1382
     34 H8          4.2849    1.3651    6.0395 H         1 <0>         0.1003
     35 H9          5.5820    1.0314    4.8672 H         1 <0>         0.0993
     36 H10         6.2378    0.8575    8.4395 H         1 <0>         0.0884
     37 H11         6.1249    0.3594    6.7317 H         1 <0>         0.0899
     38 H12         8.1875   -0.5160    7.9260 H         1 <0>         0.1122
     39 H13         8.5470    0.4605    6.4808 H         1 <0>         0.0583
     40 H14         9.5992    3.3301    8.4228 H         1 <0>         0.1147
     41 H15         9.3710    2.7055    6.7708 H         1 <0>         0.0587
     42 H16         7.5661    4.2654    7.2303 H         1 <0>         0.1067
     43 H17         7.1938    3.4485    8.7703 H         1 <0>         0.0840
     44 H18        -1.9756   -0.5469    3.1064 H         1 <0>         0.4402
     45 H19        -0.3970   -0.2405    3.5929 H         1 <0>         0.4297
     46 H20        -1.6989   -1.0116   -2.5856 H         1 <0>         0.4288
     47 H21        -2.9177   -0.7272   -1.4647 H         1 <0>         0.4407
     48 H22         2.0942   -2.8612    1.3175 H         1 <0>         0.0957
     49 H23         0.4009   -3.1679    0.8626 H         1 <0>         0.0715
     50 H24         1.6937   -3.3455   -0.3479 H         1 <0>         0.0964
     51 H25         0.4659   -1.2659   -1.8644 H         1 <0>         0.4313
@<TRIPOS>BOND
     1    1    2 1
     2    1   27 1
     3    1   28 1
     4    1   29 1
     5    2    7 1
     6    2    3 1
     7    2   26 1
     8    3    4 2
     9    3   51 1
    10    4    5 1
    11    4   25 1
    12    5    6 2
    13    6    7 1
    14    6   24 1
    15    7    8 1
    16    8   13 ar
    17    8    9 ar
    18    9   10 ar
    19    9   30 1
    20   10   11 ar
    21   10   31 1
    22   11   12 ar
    23   11   14 1
    24   12   13 ar
    25   12   32 1
    26   13   33 1
    27   14   15 1
    28   15   16 1
    29   15   34 1
    30   15   35 1
    31   16   17 2
    32   16   18 am
    33   18   23 1
    34   18   19 1
    35   19   20 1
    36   19   36 1
    37   19   37 1
    38   20   21 1
    39   20   38 1
    40   20   39 1
    41   21   22 1
    42   22   23 1
    43   22   40 1
    44   22   41 1
    45   23   42 1
    46   23   43 1
    47   24   44 1
    48   24   45 1
    49   25   46 1
    50   25   47 1
    51   26   48 1
    52   26   49 1
    53   26   50 1
@<TRIPOS>MOLECULE
CHEMBL443763
   51    52     0     0     0
SMALL
USER_CHARGES

@<TRIPOS>ATOM
      1 C1         -0.0167    1.3794    0.0096 C.ar      1 <0>        -0.1272
      2 C2          1.1667    2.0884    0.0021 C.ar      1 <0>        -0.0642
      3 C3          2.3848    1.4070   -0.0132 C.ar      1 <0>        -0.1012
      4 C4          2.3966    0.0113   -0.0208 C.ar      1 <0>        -0.0825
      5 C5          1.2061   -0.6856   -0.0132 C.ar      1 <0>        -0.1232
      6 C6          0.0021   -0.0041    0.0020 C.ar      1 <0>        -0.0907
      7 C7         -1.2946   -0.7719    0.0103 C.3       1 <0>        -0.0745
      8 C8         -1.7472   -1.0241   -1.4293 C.3       1 <0>        -0.1190
      9 C9         -3.0637   -1.8037   -1.4209 C.3       1 <0>        -0.0752
     10 C10        -3.5095   -2.0520   -2.8389 C.ar      1 <0>        -0.2187
     11 C11        -4.4001   -1.1976   -3.4592 C.ar      1 <0>         0.2001
     12 N1         -4.7721   -1.4433   -4.7068 N.ar      1 <0>        -0.5704
     13 C12        -4.3025   -2.4941   -5.3631 C.ar      1 <0>         0.6596
     14 N2         -3.4477   -3.3373   -4.8042 N.ar      1 <0>        -0.5755
     15 C13        -3.0271   -3.1478   -3.5575 C.ar      1 <0>         0.5320
     16 N3         -2.1284   -4.0282   -2.9775 N.pl3     1 <0>        -0.7732
     17 N4         -4.7159   -2.7164   -6.6651 N.pl3     1 <0>        -0.7962
     18 C14         3.6569    2.1603   -0.0218 C.2       1 <0>         0.5381
     19 O1          3.6435    3.3757   -0.0155 O.2       1 <0>        -0.5497
     20 N5          4.8314    1.4994   -0.0366 N.am      1 <0>        -0.6719
     21 C15         6.0919    2.2459   -0.0451 C.3       1 <0>         0.0725
     22 H1          5.9814    3.1523    0.5501 H         1 <0>         0.0795
     23 C16         7.2027    1.3778    0.5494 C.3       1 <0>        -0.0831
     24 C17         6.9032    1.1060    2.0250 C.3       1 <0>        -0.1769
     25 C18         7.9973    0.2510    2.6105 C.2       1 <0>         0.4902
     26 O2          8.9302   -0.1078    1.9123 O.co2     1 <0>        -0.6962
     27 O3          7.9496   -0.0820    3.7824 O.co2     1 <0>        -0.7180
     28 C19         6.4472    2.6155   -1.4622 C.2       1 <0>         0.4988
     29 O4          7.0818    3.6322   -1.6861 O.co2     1 <0>        -0.6967
     30 O5          6.1002    1.8979   -2.3847 O.co2     1 <0>        -0.7014
     31 H2         -0.9598    1.9054    0.0260 H         1 <0>         0.1214
     32 H3          1.1508    3.1682    0.0077 H         1 <0>         0.1357
     33 H4          3.3358   -0.5219   -0.0330 H         1 <0>         0.1317
     34 H5          1.2138   -1.7656   -0.0191 H         1 <0>         0.1224
     35 H6         -1.1489   -1.7256    0.5176 H         1 <0>         0.0753
     36 H7         -2.0557   -0.1941    0.5345 H         1 <0>         0.0764
     37 H8         -1.8929   -0.0704   -1.9367 H         1 <0>         0.0749
     38 H9         -0.9861   -1.6019   -1.9536 H         1 <0>         0.0691
     39 H10        -2.9179   -2.7573   -0.9136 H         1 <0>         0.0882
     40 H11        -3.8248   -1.2258   -0.8967 H         1 <0>         0.0995
     41 H12        -4.7892   -0.3387   -2.9327 H         1 <0>         0.2149
     42 H13        -1.8297   -3.8857   -2.0657 H         1 <0>         0.4341
     43 H14        -1.7979   -4.7871   -3.4832 H         1 <0>         0.4282
     44 H15        -5.3419   -2.1066   -7.0860 H         1 <0>         0.4287
     45 H16        -4.3796   -3.4820   -7.1567 H         1 <0>         0.4433
     46 H17         4.8421    0.5294   -0.0416 H         1 <0>         0.3908
     47 H18         7.2537    0.4325    0.0090 H         1 <0>         0.0602
     48 H19         8.1565    1.8981    0.4621 H         1 <0>         0.0748
     49 H20         6.8522    2.0513    2.5654 H         1 <0>         0.0535
     50 H21         5.9494    0.5857    2.1123 H         1 <0>         0.0491
     51 H22        -5.3973   -0.8456   -5.1458 H         1 <0>         0.4427
@<TRIPOS>BOND
     1    1    6 ar
     2    1    2 ar
     3    1   31 1
     4    2    3 ar
     5    2   32 1
     6    3    4 ar
     7    3   18 1
     8    4    5 ar
     9    4   33 1
    10    5    6 ar
    11    5   34 1
    12    6    7 1
    13    7    8 1
    14    7   35 1
    15    7   36 1
    16    8    9 1
    17    8   37 1
    18    8   38 1
    19    9   10 1
    20    9   39 1
    21    9   40 1
    22   10   15 ar
    23   10   11 ar
    24   11   12 ar
    25   11   41 1
    26   12   13 ar
    27   12   51 1
    28   13   14 ar
    29   13   17 1
    30   14   15 ar
    31   15   16 1
    32   16   42 1
    33   16   43 1
    34   17   44 1
    35   17   45 1
    36   18   19 2
    37   18   20 am
    38   20   21 1
    39   20   46 1
    40   21   22 1
    41   21   23 1
    42   21   28 1
    43   23   24 1
    44   23   47 1
    45   23   48 1
    46   24   25 1
    47   24   49 1
    48   24   50 1
    49   25   26 2
    50   25   27 1
    51   28   29 2
    52   28   30 1
@<TRIPOS>MOLECULE
CHEMBL443763__1
   50    51     0     0     0
SMALL
USER_CHARGES

@<TRIPOS>ATOM
      1 C1         -0.0167    1.3794    0.0096 C.ar      1 <0>        -0.1283
      2 C2          1.1667    2.0884    0.0021 C.ar      1 <0>        -0.0643
      3 C3          2.3848    1.4070   -0.0132 C.ar      1 <0>        -0.1088
      4 C4          2.3966    0.0113   -0.0208 C.ar      1 <0>        -0.0837
      5 C5          1.2061   -0.6856   -0.0132 C.ar      1 <0>        -0.1248
      6 C6          0.0021   -0.0041    0.0020 C.ar      1 <0>        -0.0787
      7 C7         -1.2946   -0.7719    0.0103 C.3       1 <0>        -0.0763
      8 C8         -1.7472   -1.0241   -1.4293 C.3       1 <0>        -0.1132
      9 C9         -3.0637   -1.8037   -1.4209 C.3       1 <0>        -0.0536
     10 C10        -3.5095   -2.0520   -2.8389 C.ar      1 <0>        -0.3038
     11 C11        -4.4001   -1.1976   -3.4592 C.ar      1 <0>         0.2164
     12 N1         -4.7721   -1.4433   -4.7068 N.ar      1 <0>        -0.6082
     13 C12        -4.3021   -2.4938   -5.3633 C.ar      1 <0>         0.5969
     14 N2         -3.4473   -3.3370   -4.8044 N.ar      1 <0>        -0.6291
     15 C13        -3.0271   -3.1478   -3.5575 C.ar      1 <0>         0.4835
     16 N3         -2.1284   -4.0282   -2.9775 N.pl3     1 <0>        -0.8333
     17 N4         -4.7152   -2.7159   -6.6654 N.pl3     1 <0>        -0.8251
     18 C14         3.6569    2.1603   -0.0218 C.2       1 <0>         0.5498
     19 O1          3.6435    3.3757   -0.0155 O.2       1 <0>        -0.5546
     20 N5          4.8314    1.4994   -0.0366 N.am      1 <0>        -0.6757
     21 C15         6.0919    2.2459   -0.0451 C.3       1 <0>         0.0723
     22 H1          5.9814    3.1523    0.5501 H         1 <0>         0.0781
     23 C16         7.2027    1.3778    0.5494 C.3       1 <0>        -0.0804
     24 C17         6.9032    1.1060    2.0250 C.3       1 <0>        -0.1778
     25 C18         7.9973    0.2510    2.6105 C.2       1 <0>         0.4908
     26 O2          8.9302   -0.1078    1.9123 O.co2     1 <0>        -0.6970
     27 O3          7.9496   -0.0820    3.7824 O.co2     1 <0>        -0.7202
     28 C19         6.4472    2.6155   -1.4622 C.2       1 <0>         0.4956
     29 O4          5.7154    2.2860   -2.3799 O.co2     1 <0>        -0.6970
     30 O5          7.4666    3.2441   -1.6909 O.co2     1 <0>        -0.6997
     31 H2         -0.9598    1.9054    0.0260 H         1 <0>         0.1216
     32 H3          1.1508    3.1682    0.0077 H         1 <0>         0.1331
     33 H4          3.3358   -0.5219   -0.0330 H         1 <0>         0.1281
     34 H5          1.2138   -1.7656   -0.0191 H         1 <0>         0.1221
     35 H6         -1.1489   -1.7256    0.5176 H         1 <0>         0.0706
     36 H7         -2.0557   -0.1941    0.5345 H         1 <0>         0.0717
     37 H8         -1.8929   -0.0704   -1.9367 H         1 <0>         0.0677
     38 H9         -0.9861   -1.6019   -1.9536 H         1 <0>         0.0637
     39 H10        -2.9179   -2.7573   -0.9136 H         1 <0>         0.0641
     40 H11        -3.8248   -1.2258   -0.8967 H         1 <0>         0.0748
     41 H12        -4.7892   -0.3387   -2.9327 H         1 <0>         0.1637
     42 H13        -1.8297   -3.8857   -2.0657 H         1 <0>         0.4138
     43 H14        -1.7979   -4.7871   -3.4832 H         1 <0>         0.4055
     44 H15        -5.3412   -2.1061   -7.0863 H         1 <0>         0.4130
     45 H16        -4.3787   -3.4813   -7.1571 H         1 <0>         0.4111
     46 H17         4.8421    0.5294   -0.0416 H         1 <0>         0.3890
     47 H18         7.2537    0.4325    0.0090 H         1 <0>         0.0548
     48 H19         8.1565    1.8981    0.4621 H         1 <0>         0.0794
     49 H20         6.8522    2.0513    2.5654 H         1 <0>         0.0523
     50 H21         5.9494    0.5857    2.1123 H         1 <0>         0.0499
@<TRIPOS>BOND
     1    1    6 ar
     2    1    2 ar
     3    1   31 1
     4    2    3 ar
     5    2   32 1
     6    3    4 ar
     7    3   18 1
     8    4    5 ar
     9    4   33 1
    10    5    6 ar
    11    5   34 1
    12    6    7 1
    13    7    8 1
    14    7   35 1
    15    7   36 1
    16    8    9 1
    17    8   37 1
    18    8   38 1
    19    9   10 1
    20    9   39 1
    21    9   40 1
    22   10   15 ar
    23   10   11 ar
    24   11   12 ar
    25   11   41 1
    26   12   13 ar
    27   13   14 ar
    28   13   17 1
    29   14   15 ar
    30   15   16 1
    31   16   42 1
    32   16   43 1
    33   17   44 1
    34   17   45 1
    35   18   19 2
    36   18   20 am
    37   20   21 1
    38   20   46 1
    39   21   22 1
    40   21   23 1
    41   21   28 1
    42   23   24 1
    43   23   47 1
    44   23   48 1
    45   24   25 1
    46   24   49 1
    47   24   50 1
    48   25   26 2
    49   25   27 1
    50   28   29 2
    51   28   30 1
@<TRIPOS>MOLECULE
CHEMBL113816
   47    49     0     0     0
SMALL
USER_CHARGES

@<TRIPOS>ATOM
      1 C1         -0.0178    1.4608    0.0101 C.3       1 <0>         0.0794
      2 N1          0.0021   -0.0041    0.0020 N.pl3     1 <0>        -0.6076
      3 C2          0.0241   -0.7433    1.2666 C.3       1 <0>         0.1558
      4 C3         -1.3889   -1.0161    1.7137 C.ar      1 <0>        -0.0420
      5 C4         -2.0460   -0.1047    2.5180 C.ar      1 <0>        -0.1736
      6 C5         -3.3472   -0.3537    2.9311 C.ar      1 <0>         0.1732
      7 C6         -3.9879   -1.5179    2.5360 C.ar      1 <0>        -0.2920
      8 C7         -3.3265   -2.4307    1.7290 C.ar      1 <0>         0.1711
      9 C8         -2.0273   -2.1745    1.3140 C.ar      1 <0>        -0.1819
     10 O1         -3.9518   -3.5731    1.3405 O.3       1 <0>        -0.3135
     11 C9         -5.2904   -3.7687    1.8007 C.3       1 <0>         0.0244
     12 O2         -3.9928    0.5428    3.7225 O.3       1 <0>        -0.3110
     13 C10        -5.3303    0.2215    4.1094 C.3       1 <0>         0.0245
     14 C11        -0.0000   -0.6968   -1.2131 C.ar      1 <0>         0.2278
     15 C12         0.0132   -2.0947   -1.2135 C.ar      1 <0>        -0.0956
     16 C13         0.0115   -2.7947   -2.3819 C.ar      1 <0>        -0.0917
     17 C14        -0.0041   -2.1103   -3.6050 C.ar      1 <0>         0.1345
     18 C15        -0.0180   -0.6945   -3.6120 C.ar      1 <0>        -0.1313
     19 C16        -0.0208    0.0056   -2.4007 C.ar      1 <0>        -0.1446
     20 C17        -0.0342   -0.0283   -4.8628 C.ar      1 <0>         0.5559
     21 N2         -0.0355   -0.7620   -5.9658 N.ar      1 <0>        -0.5951
     22 C18        -0.0220   -2.0911   -5.9145 C.ar      1 <0>         0.6826
     23 N3         -0.0067   -2.7614   -4.7789 N.ar      1 <0>        -0.5727
     24 N4         -0.0242   -2.8005   -7.1029 N.pl3     1 <0>        -0.7955
     25 N5         -0.0486    1.3491   -4.9301 N.pl3     1 <0>        -0.7707
     26 H1          1.0048    1.8381    0.0023 H         1 <0>         0.0654
     27 H2         -0.5450    1.8219   -0.8730 H         1 <0>         0.0705
     28 H3         -0.5280    1.8123    0.9069 H         1 <0>         0.0825
     29 H4          0.5496   -1.6879    1.1262 H         1 <0>         0.0951
     30 H5          0.5371   -0.1514    2.0246 H         1 <0>         0.1037
     31 H6         -1.5463    0.8019    2.8258 H         1 <0>         0.1334
     32 H7         -5.0005   -1.7136    2.8567 H         1 <0>         0.1377
     33 H8         -1.5132   -2.8833    0.6817 H         1 <0>         0.1294
     34 H9         -5.6709   -4.7162    1.4194 H         1 <0>         0.1063
     35 H10        -5.3013   -3.7850    2.8906 H         1 <0>         0.0590
     36 H11        -5.9202   -2.9540    1.4433 H         1 <0>         0.0568
     37 H12        -5.7282    1.0185    4.7377 H         1 <0>         0.1074
     38 H13        -5.9508    0.1165    3.2194 H         1 <0>         0.0567
     39 H14        -5.3323   -0.7154    4.6663 H         1 <0>         0.0584
     40 H15         0.0253   -2.6272   -0.2740 H         1 <0>         0.1543
     41 H16         0.0226   -3.8745   -2.3660 H         1 <0>         0.1569
     42 H17        -0.0354    1.0855   -2.3951 H         1 <0>         0.1469
     43 H18        -0.0354   -2.3278   -7.9499 H         1 <0>         0.4425
     44 H19        -0.0146   -3.7703   -7.0889 H         1 <0>         0.4288
     45 H20        -0.0478    1.8745   -4.1147 H         1 <0>         0.4298
     46 H21        -0.0596    1.7925   -5.7927 H         1 <0>         0.4305
     47 H22         0.0027   -3.7313   -4.7919 H         1 <0>         0.4374
@<TRIPOS>BOND
     1    1    2 1
     2    1   26 1
     3    1   27 1
     4    1   28 1
     5    2    3 1
     6    2   14 1
     7    3    4 1
     8    3   29 1
     9    3   30 1
    10    4    9 ar
    11    4    5 ar
    12    5    6 ar
    13    5   31 1
    14    6    7 ar
    15    6   12 1
    16    7    8 ar
    17    7   32 1
    18    8    9 ar
    19    8   10 1
    20    9   33 1
    21   10   11 1
    22   11   34 1
    23   11   35 1
    24   11   36 1
    25   12   13 1
    26   13   37 1
    27   13   38 1
    28   13   39 1
    29   14   19 ar
    30   14   15 ar
    31   15   16 ar
    32   15   40 1
    33   16   17 ar
    34   16   41 1
    35   17   23 ar
    36   17   18 ar
    37   18   19 ar
    38   18   20 ar
    39   19   42 1
    40   20   21 ar
    41   20   25 1
    42   21   22 ar
    43   22   23 ar
    44   22   24 1
    45   23   47 1
    46   24   43 1
    47   24   44 1
    48   25   45 1
    49   25   46 1
@<TRIPOS>MOLECULE
CHEMBL33136
   38    40     0     0     0
SMALL
USER_CHARGES

@<TRIPOS>ATOM
      1 C1         -0.0167    1.3781    0.0096 C.ar      1 <0>        -0.1141
      2 C2          1.1709    2.0855    0.0021 C.ar      1 <0>        -0.1162
      3 C3          2.3773    1.4107   -0.0130 C.ar      1 <0>        -0.1135
      4 C4          2.3960    0.0285   -0.0201 C.ar      1 <0>        -0.0950
      5 C5          1.2084   -0.6789   -0.0117 C.ar      1 <0>        -0.1135
      6 C6          0.0021   -0.0041    0.0020 C.ar      1 <0>        -0.1162
      7 C7          3.7112   -0.7071   -0.0376 C.3       1 <0>        -0.0882
      8 C8          4.1714   -0.9633    1.3989 C.3       1 <0>         0.1135
      9 N1          5.4498   -1.6784    1.3820 N.pl3     1 <0>        -0.7203
     10 C9          6.0732   -2.0260    2.5857 C.ar      1 <0>         0.1726
     11 C10         7.2854   -2.6975    2.5749 C.ar      1 <0>        -0.0925
     12 C11         7.8655   -3.0214    3.8067 C.ar      1 <0>        -0.1786
     13 C12         9.1026   -3.7063    3.8981 C.ar      1 <0>         0.5633
     14 N2          9.5839   -3.9749    5.1032 N.ar      1 <0>        -0.5916
     15 C13         8.9300   -3.6149    6.2041 C.ar      1 <0>         0.6988
     16 N3          7.7763   -2.9762    6.1749 N.ar      1 <0>        -0.5689
     17 C14         7.2029   -2.6567    5.0044 C.ar      1 <0>         0.3299
     18 N4          6.0380   -2.0112    4.9517 N.ar      1 <0>        -0.4518
     19 C15         5.4808   -1.6936    3.8052 C.ar      1 <0>         0.1510
     20 N5          9.4836   -3.9242    7.4328 N.pl3     1 <0>        -0.7860
     21 N6          9.7873   -4.0837    2.7630 N.pl3     1 <0>        -0.7651
     22 H1         -0.9591    1.9053    0.0259 H         1 <0>         0.1255
     23 H2          1.1563    3.1654    0.0076 H         1 <0>         0.1255
     24 H3          3.3051    1.9634   -0.0196 H         1 <0>         0.1221
     25 H4          1.2231   -1.7588   -0.0176 H         1 <0>         0.1221
     26 H5         -0.9258   -0.5567    0.0082 H         1 <0>         0.1255
     27 H6          3.5884   -1.6586   -0.5549 H         1 <0>         0.0833
     28 H7          4.4573   -0.1052   -0.5563 H         1 <0>         0.0833
     29 H8          4.2941   -0.0118    1.9163 H         1 <0>         0.0761
     30 H9          3.4252   -1.5652    1.9176 H         1 <0>         0.0761
     31 H10         5.8643   -1.9110    0.5363 H         1 <0>         0.4129
     32 H11         7.7670   -2.9629    1.6453 H         1 <0>         0.1591
     33 H12         4.5384   -1.1660    3.8061 H         1 <0>         0.1872
     34 H13        10.3311   -4.3938    7.4786 H         1 <0>         0.4454
     35 H14         9.0245   -3.6715    8.2491 H         1 <0>         0.4318
     36 H15         9.4233   -3.8810    1.8871 H         1 <0>         0.4308
     37 H16        10.6333   -4.5521    2.8402 H         1 <0>         0.4333
     38 H17         7.3387   -2.7355    7.0064 H         1 <0>         0.4425
@<TRIPOS>BOND
     1    1    6 ar
     2    1    2 ar
     3    1   22 1
     4    2    3 ar
     5    2   23 1
     6    3    4 ar
     7    3   24 1
     8    4    5 ar
     9    4    7 1
    10    5    6 ar
    11    5   25 1
    12    6   26 1
    13    7    8 1
    14    7   27 1
    15    7   28 1
    16    8    9 1
    17    8   29 1
    18    8   30 1
    19    9   10 1
    20    9   31 1
    21   10   19 ar
    22   10   11 ar
    23   11   12 ar
    24   11   32 1
    25   12   17 ar
    26   12   13 ar
    27   13   14 ar
    28   13   21 1
    29   14   15 ar
    30   15   16 ar
    31   15   20 1
    32   16   17 ar
    33   16   38 1
    34   17   18 ar
    35   18   19 ar
    36   19   33 1
    37   20   34 1
    38   20   35 1
    39   21   36 1
    40   21   37 1
@<TRIPOS>MOLECULE
CHEMBL33136__1
   37    39     0     0     0
SMALL
USER_CHARGES

@<TRIPOS>ATOM
      1 C1         -0.0167    1.3781    0.0096 C.ar      1 <0>        -0.1200
      2 C2          1.1709    2.0855    0.0021 C.ar      1 <0>        -0.1177
      3 C3          2.3773    1.4107   -0.0130 C.ar      1 <0>        -0.1141
      4 C4          2.3960    0.0285   -0.0201 C.ar      1 <0>        -0.0860
      5 C5          1.2084   -0.6789   -0.0117 C.ar      1 <0>        -0.1141
      6 C6          0.0021   -0.0041    0.0020 C.ar      1 <0>        -0.1177
      7 C7          3.7112   -0.7071   -0.0376 C.3       1 <0>        -0.0890
      8 C8          4.1714   -0.9633    1.3989 C.3       1 <0>         0.1266
      9 N1          5.4498   -1.6784    1.3820 N.pl3     1 <0>        -0.7437
     10 C9          6.0732   -2.0260    2.5857 C.ar      1 <0>         0.1251
     11 C10         7.2854   -2.6975    2.5749 C.ar      1 <0>        -0.1007
     12 C11         7.8655   -3.0214    3.8067 C.ar      1 <0>        -0.2354
     13 C12         9.1026   -3.7063    3.8981 C.ar      1 <0>         0.5126
     14 N2          9.5839   -3.9749    5.1032 N.ar      1 <0>        -0.6286
     15 C13         8.9300   -3.6149    6.2041 C.ar      1 <0>         0.6180
     16 N3          7.7763   -2.9762    6.1749 N.ar      1 <0>        -0.5927
     17 C14         7.2029   -2.6567    5.0044 C.ar      1 <0>         0.3684
     18 N4          6.0380   -2.0112    4.9517 N.ar      1 <0>        -0.4504
     19 C15         5.4808   -1.6936    3.8052 C.ar      1 <0>         0.1384
     20 N5          9.4836   -3.9242    7.4328 N.pl3     1 <0>        -0.8171
     21 N6          9.7873   -4.0837    2.7630 N.pl3     1 <0>        -0.8180
     22 H1         -0.9591    1.9053    0.0259 H         1 <0>         0.1224
     23 H2          1.1563    3.1654    0.0076 H         1 <0>         0.1231
     24 H3          3.3051    1.9634   -0.0196 H         1 <0>         0.1222
     25 H4          1.2231   -1.7588   -0.0176 H         1 <0>         0.1222
     26 H5         -0.9258   -0.5567    0.0082 H         1 <0>         0.1231
     27 H6          3.5884   -1.6586   -0.5549 H         1 <0>         0.0798
     28 H7          4.4573   -0.1052   -0.5563 H         1 <0>         0.0799
     29 H8          4.2941   -0.0118    1.9163 H         1 <0>         0.0646
     30 H9          3.4252   -1.5652    1.9176 H         1 <0>         0.0646
     31 H10         5.8643   -1.9110    0.5363 H         1 <0>         0.4012
     32 H11         7.7670   -2.9629    1.6453 H         1 <0>         0.1328
     33 H12         4.5384   -1.1660    3.8061 H         1 <0>         0.1635
     34 H13        10.3311   -4.3938    7.4786 H         1 <0>         0.4135
     35 H14         9.0245   -3.6715    8.2491 H         1 <0>         0.4167
     36 H15         9.4233   -3.8810    1.8871 H         1 <0>         0.4132
     37 H16        10.6333   -4.5521    2.8402 H         1 <0>         0.4132
@<TRIPOS>BOND
     1    1    6 ar
     2    1    2 ar
     3    1   22 1
     4    2    3 ar
     5    2   23 1
     6    3    4 ar
     7    3   24 1
     8    4    5 ar
     9    4    7 1
    10    5    6 ar
    11    5   25 1
    12    6   26 1
    13    7    8 1
    14    7   27 1
    15    7   28 1
    16    8    9 1
    17    8   29 1
    18    8   30 1
    19    9   10 1
    20    9   31 1
    21   10   19 ar
    22   10   11 ar
    23   11   12 ar
    24   11   32 1
    25   12   17 ar
    26   12   13 ar
    27   13   14 ar
    28   13   21 1
    29   14   15 ar
    30   15   16 ar
    31   15   20 1
    32   16   17 ar
    33   17   18 ar
    34   18   19 ar
    35   19   33 1
    36   20   34 1
    37   20   35 1
    38   21   36 1
    39   21   37 1
@<TRIPOS>MOLECULE
CHEMBL418214
   57    60     0     0     0
SMALL
USER_CHARGES

@<TRIPOS>ATOM
      1 C1         -0.0167    1.3794    0.0096 C.ar      1 <0>        -0.1035
      2 C2          1.1667    2.0884    0.0021 C.ar      1 <0>        -0.0663
      3 C3          2.3848    1.4070   -0.0132 C.ar      1 <0>        -0.0930
      4 C4          2.3966    0.0113   -0.0208 C.ar      1 <0>        -0.0862
      5 C5          1.2061   -0.6856   -0.0132 C.ar      1 <0>        -0.1247
      6 C6          0.0021   -0.0041    0.0020 C.ar      1 <0>        -0.0927
      7 C7         -1.2946   -0.7719    0.0103 C.3       1 <0>         0.1051
      8 N1         -1.7292   -1.0140   -1.3719 N.3       1 <0>        -0.5280
      9 C8         -3.1028   -1.5355   -1.4085 C.3       1 <0>         0.0465
     10 C9         -3.6573   -1.4121   -2.8346 C.3       1 <0>        -0.0549
     11 C10        -2.6313   -1.9740   -3.7840 C.2       1 <0>        -0.1066
     12 C11        -1.3451   -2.2029   -3.4451 C.2       1 <0>         0.0470
     13 O1         -0.6778   -2.7067   -4.5009 O.3       1 <0>        -0.1349
     14 C12        -1.4810   -2.8249   -5.5580 C.ar      1 <0>         0.3147
     15 C13        -2.7651   -2.3686   -5.1678 C.ar      1 <0>        -0.2572
     16 C14        -3.8295   -2.3745   -6.0831 C.ar      1 <0>         0.5871
     17 N2         -3.5355   -2.8299   -7.3051 N.ar      1 <0>        -0.5880
     18 C15        -2.3230   -3.2479   -7.6327 C.ar      1 <0>         0.6962
     19 N3         -1.2851   -3.2617   -6.8015 N.ar      1 <0>        -0.5455
     20 N4         -2.1224   -3.7014   -8.9255 N.pl3     1 <0>        -0.7892
     21 N5         -5.0971   -1.9380   -5.7435 N.pl3     1 <0>        -0.7665
     22 C16        -0.7947   -1.9123   -2.0689 C.3       1 <0>         0.1244
     23 C17         3.6569    2.1603   -0.0218 C.2       1 <0>         0.5449
     24 O2          3.6435    3.3757   -0.0155 O.2       1 <0>        -0.5497
     25 N6          4.8314    1.4994   -0.0366 N.am      1 <0>        -0.6728
     26 C18         6.0919    2.2459   -0.0451 C.3       1 <0>         0.0715
     27 H1          5.9814    3.1523    0.5501 H         1 <0>         0.0798
     28 C19         7.2027    1.3778    0.5494 C.3       1 <0>        -0.0808
     29 C20         6.9032    1.1060    2.0250 C.3       1 <0>        -0.1777
     30 C21         7.9973    0.2510    2.6105 C.2       1 <0>         0.4900
     31 O3          8.9302   -0.1078    1.9123 O.co2     1 <0>        -0.6963
     32 O4          7.9496   -0.0820    3.7824 O.co2     1 <0>        -0.7183
     33 C22         6.4472    2.6155   -1.4622 C.2       1 <0>         0.4966
     34 O5          5.7154    2.2860   -2.3799 O.co2     1 <0>        -0.7013
     35 O6          7.4666    3.2441   -1.6909 O.co2     1 <0>        -0.6951
     36 H2         -0.9598    1.9054    0.0260 H         1 <0>         0.1248
     37 H3          1.1508    3.1682    0.0077 H         1 <0>         0.1366
     38 H4          3.3358   -0.5219   -0.0330 H         1 <0>         0.1309
     39 H5          1.2138   -1.7656   -0.0191 H         1 <0>         0.1206
     40 H6         -1.1489   -1.7256    0.5176 H         1 <0>         0.0547
     41 H7         -2.0557   -0.1941    0.5345 H         1 <0>         0.0975
     42 H8         -3.1021   -2.5833   -1.1081 H         1 <0>         0.0497
     43 H9         -3.7279   -0.9615   -0.7245 H         1 <0>         0.1000
     44 H10        -4.5857   -1.9770   -2.9190 H         1 <0>         0.0875
     45 H11        -3.8409   -0.3635   -3.0690 H         1 <0>         0.1032
     46 H12        -2.8581   -3.7055   -9.5577 H         1 <0>         0.4456
     47 H13        -1.2462   -4.0149   -9.1991 H         1 <0>         0.4310
     48 H14        -5.2743   -1.6135   -4.8467 H         1 <0>         0.4331
     49 H15        -5.8090   -1.9563   -6.4021 H         1 <0>         0.4303
     50 H16         0.1788   -1.4303   -2.1582 H         1 <0>         0.1244
     51 H17        -0.6958   -2.8429   -1.5101 H         1 <0>         0.0814
     52 H18         4.8421    0.5294   -0.0416 H         1 <0>         0.3884
     53 H19         7.2537    0.4325    0.0090 H         1 <0>         0.0545
     54 H20         8.1565    1.8981    0.4621 H         1 <0>         0.0810
     55 H21         6.8522    2.0513    2.5654 H         1 <0>         0.0532
     56 H22         5.9494    0.5857    2.1123 H         1 <0>         0.0484
     57 H23        -0.4150   -3.5782   -7.0908 H         1 <0>         0.4486
@<TRIPOS>BOND
     1    1    6 ar
     2    1    2 ar
     3    1   36 1
     4    2    3 ar
     5    2   37 1
     6    3    4 ar
     7    3   23 1
     8    4    5 ar
     9    4   38 1
    10    5    6 ar
    11    5   39 1
    12    6    7 1
    13    7    8 1
    14    7   40 1
    15    7   41 1
    16    8   22 1
    17    8    9 1
    18    9   10 1
    19    9   42 1
    20    9   43 1
    21   10   11 1
    22   10   44 1
    23   10   45 1
    24   11   15 1
    25   11   12 2
    26   12   13 1
    27   12   22 1
    28   13   14 1
    29   14   19 ar
    30   14   15 ar
    31   15   16 ar
    32   16   17 ar
    33   16   21 1
    34   17   18 ar
    35   18   19 ar
    36   18   20 1
    37   19   57 1
    38   20   46 1
    39   20   47 1
    40   21   48 1
    41   21   49 1
    42   22   50 1
    43   22   51 1
    44   23   24 2
    45   23   25 am
    46   25   26 1
    47   25   52 1
    48   26   27 1
    49   26   28 1
    50   26   33 1
    51   28   29 1
    52   28   53 1
    53   28   54 1
    54   29   30 1
    55   29   55 1
    56   29   56 1
    57   30   31 2
    58   30   32 1
    59   33   34 2
    60   33   35 1
@<TRIPOS>MOLECULE
CHEMBL77582
   45    47     0     0     0
SMALL
USER_CHARGES

@<TRIPOS>ATOM
      1 C1          0.5841    0.7543   -0.5753 C.3       1 <0>         0.0212
      2 O1          0.5829   -0.6677   -0.4341 O.3       1 <0>        -0.2963
      3 C2          1.1143   -1.1750    0.7104 C.ar      1 <0>         0.1304
      4 C3          1.6203   -0.3251    1.6784 C.ar      1 <0>        -0.1664
      5 C4          2.1639   -0.8383    2.8458 C.ar      1 <0>        -0.0867
      6 C5          2.2043   -2.2023    3.0472 C.ar      1 <0>        -0.1300
      7 C6          1.6962   -3.0578    2.0807 C.ar      1 <0>        -0.1546
      8 C7          1.1468   -2.5508    0.9164 C.ar      1 <0>         0.1184
      9 O2          0.6452   -3.3941   -0.0253 O.3       1 <0>        -0.2966
     10 C8          0.7128   -4.7937    0.2551 C.3       1 <0>         0.0217
     11 C9          2.7946   -2.8008    4.2970 C.3       1 <0>         0.0536
     12 N1          2.8723   -1.7977    5.3627 N.4       1 <0>        -0.3876
     13 C10         3.6000   -0.6218    4.8614 C.3       1 <0>        -0.0058
     14 C11         2.7003    0.1239    3.8751 C.3       1 <0>        -0.1016
     15 C12         3.5846   -2.3612    6.5172 C.3       1 <0>         0.0688
     16 C13         2.7754   -3.4882    7.1056 C.ar      1 <0>        -0.4014
     17 C14         3.1172   -4.8045    6.8638 C.ar      1 <0>         0.2625
     18 N2          2.3857   -5.7724    7.3960 N.ar      1 <0>        -0.5930
     19 C15         1.3352   -5.4939    8.1538 C.ar      1 <0>         0.6303
     20 N3          0.9740   -4.2456    8.4093 N.ar      1 <0>        -0.6195
     21 C16         1.6663   -3.2254    7.9124 C.ar      1 <0>         0.5071
     22 N4          1.2896   -1.9207    8.1860 N.pl3     1 <0>        -0.8361
     23 N5          0.5965   -6.5335    8.6915 N.pl3     1 <0>        -0.7998
     24 H1          1.6096    1.1220   -0.5405 H         1 <0>         0.0606
     25 H2          0.1332    1.0250   -1.5300 H         1 <0>         0.1108
     26 H3          0.0103    1.2006    0.2370 H         1 <0>         0.0597
     27 H4          1.5918    0.7433    1.5234 H         1 <0>         0.1469
     28 H5          1.7255   -4.1256    2.2400 H         1 <0>         0.1452
     29 H6          1.7541   -5.0879    0.3868 H         1 <0>         0.0597
     30 H7          0.1563   -5.0088    1.1672 H         1 <0>         0.0581
     31 H8          0.2798   -5.3519   -0.5750 H         1 <0>         0.1106
     32 H9          2.1690   -3.6295    4.6286 H         1 <0>         0.1317
     33 H10         3.7960   -3.1721    4.0793 H         1 <0>         0.1394
     34 H11         3.8530    0.0344    5.6942 H         1 <0>         0.1382
     35 H12         4.5104   -0.9432    4.3555 H         1 <0>         0.1369
     36 H13         3.2767    0.9034    3.3768 H         1 <0>         0.1237
     37 H14         1.8691    0.5780    4.4146 H         1 <0>         0.1015
     38 H15         4.5550   -2.7399    6.1960 H         1 <0>         0.1427
     39 H16         3.7281   -1.5857    7.2695 H         1 <0>         0.1326
     40 H17         3.9715   -5.0420    6.2472 H         1 <0>         0.1747
     41 H18         1.7424   -1.1831    7.7480 H         1 <0>         0.4025
     42 H19         0.5730   -1.7447    8.8157 H         1 <0>         0.4214
     43 H20         0.8502   -7.4523    8.5119 H         1 <0>         0.4245
     44 H21        -0.1749   -6.3433    9.2480 H         1 <0>         0.4224
     45 H22         1.9407   -1.5257    5.6390 H         1 <0>         0.4173
@<TRIPOS>BOND
     1    1    2 1
     2    1   24 1
     3    1   25 1
     4    1   26 1
     5    2    3 1
     6    3    8 ar
     7    3    4 ar
     8    4    5 ar
     9    4   27 1
    10    5   14 1
    11    5    6 ar
    12    6    7 ar
    13    6   11 1
    14    7    8 ar
    15    7   28 1
    16    8    9 1
    17    9   10 1
    18   10   29 1
    19   10   30 1
    20   10   31 1
    21   11   12 1
    22   11   32 1
    23   11   33 1
    24   12   13 1
    25   12   15 1
    26   12   45 1
    27   13   14 1
    28   13   34 1
    29   13   35 1
    30   14   36 1
    31   14   37 1
    32   15   16 1
    33   15   38 1
    34   15   39 1
    35   16   21 ar
    36   16   17 ar
    37   17   18 ar
    38   17   40 1
    39   18   19 ar
    40   19   20 ar
    41   19   23 1
    42   20   21 ar
    43   21   22 1
    44   22   41 1
    45   22   42 1
    46   23   43 1
    47   23   44 1
@<TRIPOS>MOLECULE
CHEMBL77582__1
   45    47     0     0     0
SMALL
USER_CHARGES

@<TRIPOS>ATOM
      1 C1         -0.6261    0.9229   -0.1622 C.3       1 <0>         0.0246
      2 O1         -0.6464   -0.4974   -0.3184 O.3       1 <0>        -0.3036
      3 C2          0.0626   -1.0145   -1.3573 C.ar      1 <0>         0.1116
      4 C3          0.7665   -0.1766   -2.2041 C.ar      1 <0>        -0.1742
      5 C4          1.4894   -0.6989   -3.2662 C.ar      1 <0>        -0.0646
      6 C5          1.5076   -2.0605   -3.4838 C.ar      1 <0>        -0.0884
      7 C6          0.8061   -2.9048   -2.6354 C.ar      1 <0>        -0.1706
      8 C7          0.0883   -2.3894   -1.5707 C.ar      1 <0>         0.1031
      9 O2         -0.5933   -3.2225   -0.7395 O.3       1 <0>        -0.3029
     10 C8         -0.5206   -4.6216   -1.0207 C.3       1 <0>         0.0267
     11 C9          2.2689   -2.6714   -4.6313 C.3       1 <0>         0.1025
     12 N1          3.2558   -1.7226   -5.1562 N.3       1 <0>        -0.5360
     13 C10         2.6107   -0.4378   -5.4703 C.3       1 <0>         0.0501
     14 C11         2.2437    0.2545   -4.1575 C.3       1 <0>        -0.0737
     15 C12         3.9381   -2.2713   -6.3358 C.3       1 <0>         0.0941
     16 C13         4.9426   -3.3062   -5.8989 C.ar      1 <0>        -0.2196
     17 C14         4.6793   -4.6538   -6.0493 C.ar      1 <0>         0.2048
     18 N2          5.5832   -5.5388   -5.6556 N.ar      1 <0>        -0.5722
     19 C15         6.7312   -5.1482   -5.1215 C.ar      1 <0>         0.6634
     20 N3          7.0217   -3.8663   -4.9597 N.ar      1 <0>        -0.5762
     21 C16         6.1632   -2.9246   -5.3382 C.ar      1 <0>         0.5454
     22 N4          6.4723   -1.5843   -5.1731 N.pl3     1 <0>        -0.7671
     23 N5          7.6494   -6.1037   -4.7224 N.pl3     1 <0>        -0.7925
     24 H1          0.4003    1.2572   -0.0116 H         1 <0>         0.0564
     25 H2         -1.0336    1.3926   -1.0574 H         1 <0>         0.0570
     26 H3         -1.2297    1.2021    0.7014 H         1 <0>         0.1053
     27 H4          0.7526    0.8903   -2.0372 H         1 <0>         0.1381
     28 H5          0.8235   -3.9713   -2.8048 H         1 <0>         0.1326
     29 H6         -1.1068   -5.1712   -0.2842 H         1 <0>         0.1045
     30 H7         -0.9179   -4.8130   -2.0175 H         1 <0>         0.0548
     31 H8          0.5184   -4.9479   -0.9748 H         1 <0>         0.0523
     32 H9          2.7814   -3.5691   -4.2856 H         1 <0>         0.0780
     33 H10         1.5705   -2.9394   -5.4242 H         1 <0>         0.0560
     34 H11         3.3001    0.1898   -6.0350 H         1 <0>         0.0872
     35 H12         1.7084   -0.6145   -6.0558 H         1 <0>         0.0531
     36 H13         1.6197    1.1230   -4.3685 H         1 <0>         0.0855
     37 H14         3.1537    0.5786   -3.6527 H         1 <0>         0.0853
     38 H15         3.2052   -2.7330   -6.9975 H         1 <0>         0.0742
     39 H16         4.4507   -1.4682   -6.8653 H         1 <0>         0.1034
     40 H17         3.7463   -4.9826   -6.4828 H         1 <0>         0.2115
     41 H18         5.8082   -0.9055   -5.3706 H         1 <0>         0.4343
     42 H19         7.3529   -1.3246   -4.8599 H         1 <0>         0.4267
     43 H20         7.4488   -7.0460   -4.8351 H         1 <0>         0.4302
     44 H21         8.4935   -5.8311   -4.3300 H         1 <0>         0.4448
     45 H22         5.4020   -6.4860   -5.7595 H         1 <0>         0.4439
@<TRIPOS>BOND
     1    1    2 1
     2    1   24 1
     3    1   25 1
     4    1   26 1
     5    2    3 1
     6    3    8 ar
     7    3    4 ar
     8    4    5 ar
     9    4   27 1
    10    5   14 1
    11    5    6 ar
    12    6    7 ar
    13    6   11 1
    14    7    8 ar
    15    7   28 1
    16    8    9 1
    17    9   10 1
    18   10   29 1
    19   10   30 1
    20   10   31 1
    21   11   12 1
    22   11   32 1
    23   11   33 1
    24   12   13 1
    25   12   15 1
    26   13   14 1
    27   13   34 1
    28   13   35 1
    29   14   36 1
    30   14   37 1
    31   15   16 1
    32   15   38 1
    33   15   39 1
    34   16   21 ar
    35   16   17 ar
    36   17   18 ar
    37   17   40 1
    38   18   19 ar
    39   18   45 1
    40   19   20 ar
    41   19   23 1
    42   20   21 ar
    43   21   22 1
    44   22   41 1
    45   22   42 1
    46   23   43 1
    47   23   44 1
@<TRIPOS>MOLECULE
CHEMBL77582__2
   46    48     0     0     0
SMALL
USER_CHARGES

@<TRIPOS>ATOM
      1 C1         -0.8076    0.7334   -0.2160 C.3       1 <0>         0.0191
      2 O1         -0.6491   -0.6853   -0.2806 O.3       1 <0>        -0.2925
      3 C2          0.0890   -1.1778   -1.3113 C.ar      1 <0>         0.1412
      4 C3          0.6529   -0.3167   -2.2364 C.ar      1 <0>        -0.1670
      5 C4          1.4049   -0.8149   -3.2891 C.ar      1 <0>        -0.0830
      6 C5          1.5933   -2.1750   -3.4200 C.ar      1 <0>        -0.1459
      7 C6          1.0320   -3.0416   -2.4937 C.ar      1 <0>        -0.1571
      8 C7          0.2856   -2.5496   -1.4376 C.ar      1 <0>         0.1213
      9 O2         -0.2578   -3.4036   -0.5294 O.3       1 <0>        -0.2925
     10 C8         -0.0138   -4.7982   -0.7233 C.3       1 <0>         0.0226
     11 C9          2.3955   -2.7575   -4.5539 C.3       1 <0>         0.0531
     12 N1          3.2542   -1.7346   -5.1575 N.4       1 <0>        -0.3922
     13 C10         2.4270   -0.5805   -5.5413 C.3       1 <0>        -0.0057
     14 C11         2.0039    0.1593   -4.2716 C.3       1 <0>        -0.1038
     15 C12         3.9120   -2.2860   -6.3497 C.3       1 <0>         0.0535
     16 C13         4.8541   -3.3882   -5.9391 C.ar      1 <0>        -0.3209
     17 C14         4.5069   -4.7143   -6.1097 C.ar      1 <0>         0.2733
     18 N2          5.3576   -5.6599   -5.7389 N.ar      1 <0>        -0.5692
     19 C15         6.5316   -5.3500   -5.2084 C.ar      1 <0>         0.6745
     20 N3          6.9019   -4.0913   -5.0277 N.ar      1 <0>        -0.5598
     21 C16         6.1002   -3.0922   -5.3828 C.ar      1 <0>         0.5437
     22 N4          6.4927   -1.7765   -5.1980 N.pl3     1 <0>        -0.7818
     23 N5          7.3921   -6.3670   -4.8335 N.pl3     1 <0>        -0.7661
     24 H1          0.1711    1.2047   -0.1268 H         1 <0>         0.0620
     25 H2         -1.2992    1.0857   -1.1229 H         1 <0>         0.0633
     26 H3         -1.4158    0.9920    0.6508 H         1 <0>         0.1154
     27 H4          0.5062    0.7487   -2.1380 H         1 <0>         0.1505
     28 H5          1.1820   -4.1063   -2.5950 H         1 <0>         0.1428
     29 H6         -0.4127   -5.1059   -1.6899 H         1 <0>         0.0593
     30 H7          1.0595   -4.9863   -0.6966 H         1 <0>         0.0557
     31 H8         -0.5020   -5.3660    0.0687 H         1 <0>         0.1138
     32 H9          3.0160   -3.5696   -4.1750 H         1 <0>         0.1229
     33 H10         1.7159   -3.1486   -5.3111 H         1 <0>         0.1441
     34 H11         3.0051    0.0882   -6.1790 H         1 <0>         0.1449
     35 H12         1.5420   -0.9261   -6.0757 H         1 <0>         0.1443
     36 H13         1.2649    0.9196   -4.5244 H         1 <0>         0.1310
     37 H14         2.8750    0.6369   -3.8231 H         1 <0>         0.1049
     38 H15         3.1585   -2.6861   -7.0281 H         1 <0>         0.1646
     39 H16         4.4721   -1.4979   -6.8528 H         1 <0>         0.1561
     40 H17         3.5521   -4.9774   -6.5404 H         1 <0>         0.2273
     41 H18         5.8687   -1.0550   -5.3737 H         1 <0>         0.4218
     42 H19         7.3915   -1.5768   -4.8928 H         1 <0>         0.4423
     43 H20         7.1328   -7.2930   -4.9602 H         1 <0>         0.4391
     44 H21         8.2545   -6.1537   -4.4440 H         1 <0>         0.4535
     45 H22         3.9521   -1.4427   -4.4898 H         1 <0>         0.4194
     46 H23         5.1174   -6.5922   -5.8570 H         1 <0>         0.4561
@<TRIPOS>BOND
     1    1    2 1
     2    1   24 1
     3    1   25 1
     4    1   26 1
     5    2    3 1
     6    3    8 ar
     7    3    4 ar
     8    4    5 ar
     9    4   27 1
    10    5   14 1
    11    5    6 ar
    12    6    7 ar
    13    6   11 1
    14    7    8 ar
    15    7   28 1
    16    8    9 1
    17    9   10 1
    18   10   29 1
    19   10   30 1
    20   10   31 1
    21   11   12 1
    22   11   32 1
    23   11   33 1
    24   12   13 1
    25   12   15 1
    26   12   45 1
    27   13   14 1
    28   13   34 1
    29   13   35 1
    30   14   36 1
    31   14   37 1
    32   15   16 1
    33   15   38 1
    34   15   39 1
    35   16   21 ar
    36   16   17 ar
    37   17   18 ar
    38   17   40 1
    39   18   19 ar
    40   18   46 1
    41   19   20 ar
    42   19   23 1
    43   20   21 ar
    44   21   22 1
    45   22   41 1
    46   22   42 1
    47   23   43 1
    48   23   44 1
@<TRIPOS>MOLECULE
CHEMBL103971
   65    68     0     0     0
SMALL
USER_CHARGES

@<TRIPOS>ATOM
      1 C1          0.8935   -1.6706   -0.2826 C.3       1 <0>        -0.1550
      2 C2          0.1058   -0.3838   -0.0280 C.3       1 <0>        -0.1071
      3 C3         -1.3705   -0.6719   -0.1204 C.ar      1 <0>         0.2622
      4 C4         -2.0170   -0.6540   -1.3542 C.ar      1 <0>        -0.1964
      5 C5         -3.3965   -0.9296   -1.3873 C.ar      1 <0>         0.5431
      6 N1         -4.0252   -1.1946   -0.2479 N.ar      1 <0>        -0.5719
      7 C6         -3.3684   -1.2004    0.9025 C.ar      1 <0>         0.6687
      8 N2         -2.0686   -0.9506    0.9688 N.ar      1 <0>        -0.5688
      9 N3         -4.0588   -1.4806    2.0685 N.pl3     1 <0>        -0.7876
     10 N4         -4.0866   -0.9241   -2.5868 N.pl3     1 <0>        -0.7722
     11 C7         -1.2713   -0.3519   -2.5998 C.ar      1 <0>        -0.0706
     12 C8         -0.7738    0.9316   -2.8220 C.ar      1 <0>        -0.0432
     13 C9         -0.0808    1.2101   -3.9808 C.ar      1 <0>        -0.1156
     14 C10         0.1217    0.2127   -4.9276 C.ar      1 <0>         0.2708
     15 C11        -0.3736   -1.0671   -4.7086 C.ar      1 <0>        -0.0558
     16 C12        -1.0616   -1.3521   -3.5479 C.ar      1 <0>        -0.0393
     17 N5         -0.1571   -2.1269   -5.7192 N.pl3     1 <0>         0.0306
     18 O1         -0.5878   -3.2405   -5.5291 O.2       1 <0>        -0.1728
     19 O2          0.4504   -1.8788   -6.7346 O.3       1 <0>        -0.1107
     20 N6          0.8238    0.4974   -6.1012 N.pl3     1 <0>        -0.6735
     21 C13         2.2779    0.3246   -6.1451 C.3       1 <0>         0.1122
     22 C14         0.1060    0.9687   -7.2881 C.3       1 <0>         0.1865
     23 C15         0.0323    2.4737   -7.2660 C.ar      1 <0>        -0.0883
     24 C16        -1.0341    3.1022   -6.6482 C.ar      1 <0>        -0.1173
     25 C17        -1.1072    4.4798   -6.6246 C.ar      1 <0>        -0.0790
     26 C18        -0.1027    5.2390   -7.2250 C.ar      1 <0>        -0.0393
     27 C19         0.9702    4.5994   -7.8459 C.ar      1 <0>        -0.0609
     28 C20         1.0344    3.2211   -7.8586 C.ar      1 <0>        -0.1068
     29 C21        -0.1752    6.7171   -7.2037 C.2       1 <0>         0.3402
     30 N7          0.7228    7.4775   -7.7475 N.2       1 <0>        -0.5165
     31 C22         0.3273    8.8851   -7.5455 C.3       1 <0>         0.0439
     32 C23        -1.1567    8.7456   -7.1272 C.3       1 <0>         0.0262
     33 O3         -1.1851    7.3967   -6.6214 O.3       1 <0>        -0.3421
     34 C24         0.4560    9.6808   -8.8460 C.3       1 <0>        -0.1302
     35 C25         1.1515    9.5294   -6.4291 C.3       1 <0>        -0.1376
     36 H1          1.9576   -1.4783   -0.1455 H         1 <0>         0.0905
     37 H2          0.5699   -2.4395    0.4190 H         1 <0>         0.0658
     38 H3          0.7141   -2.0106   -1.3025 H         1 <0>         0.0695
     39 H4          0.3405   -0.0050    0.9668 H         1 <0>         0.1084
     40 H5          0.3778    0.3624   -0.7744 H         1 <0>         0.1207
     41 H6         -5.0098   -1.6691    2.0358 H         1 <0>         0.4466
     42 H7         -3.5918   -1.4886    2.9187 H         1 <0>         0.4316
     43 H8         -3.6193   -0.7291   -3.4142 H         1 <0>         0.4301
     44 H9         -5.0375   -1.1152   -2.6002 H         1 <0>         0.4312
     45 H10        -0.9315    1.7071   -2.0870 H         1 <0>         0.1482
     46 H11         0.3047    2.2041   -4.1533 H         1 <0>         0.1580
     47 H12        -1.4419   -2.3482   -3.3758 H         1 <0>         0.1561
     48 H13         2.5137   -0.6899   -6.4663 H         1 <0>         0.0539
     49 H14         2.7074    1.0377   -6.8488 H         1 <0>         0.0734
     50 H15         2.6944    0.4976   -5.1528 H         1 <0>         0.0538
     51 H16         0.6338    0.6438   -8.1848 H         1 <0>         0.0972
     52 H17        -0.9027    0.5556   -7.2906 H         1 <0>         0.0702
     53 H18        -1.8111    2.5133   -6.1838 H         1 <0>         0.1201
     54 H19        -1.9405    4.9693   -6.1426 H         1 <0>         0.1317
     55 H20         1.7510    5.1818   -8.3125 H         1 <0>         0.1408
     56 H21         1.8666    2.7247   -8.3355 H         1 <0>         0.1328
     57 H22        -1.4130    9.4638   -6.3483 H         1 <0>         0.1138
     58 H23        -1.8176    8.8513   -7.9875 H         1 <0>         0.0869
     59 H24        -0.1699    9.2260   -9.6137 H         1 <0>         0.0596
     60 H25         0.1342   10.7083   -8.6765 H         1 <0>         0.0690
     61 H26         1.4954    9.6750   -9.1741 H         1 <0>         0.0722
     62 H27         2.2061    9.5203   -6.7045 H         1 <0>         0.0716
     63 H28         0.8231   10.5584   -6.2826 H         1 <0>         0.0710
     64 H29         1.0125    8.9685   -5.5049 H         1 <0>         0.0561
     65 H30        -1.6226   -0.9684    1.8300 H         1 <0>         0.4435
@<TRIPOS>BOND
     1    1    2 1
     2    1   36 1
     3    1   37 1
     4    1   38 1
     5    2    3 1
     6    2   39 1
     7    2   40 1
     8    3    8 ar
     9    3    4 ar
    10    4    5 ar
    11    4   11 1
    12    5    6 ar
    13    5   10 1
    14    6    7 ar
    15    7    8 ar
    16    7    9 1
    17    8   65 1
    18    9   41 1
    19    9   42 1
    20   10   43 1
    21   10   44 1
    22   11   16 ar
    23   11   12 ar
    24   12   13 ar
    25   12   45 1
    26   13   14 ar
    27   13   46 1
    28   14   15 ar
    29   14   20 1
    30   15   16 ar
    31   15   17 1
    32   16   47 1
    33   17   18 2
    34   17   19 1
    35   20   21 1
    36   20   22 1
    37   21   48 1
    38   21   49 1
    39   21   50 1
    40   22   23 1
    41   22   51 1
    42   22   52 1
    43   23   28 ar
    44   23   24 ar
    45   24   25 ar
    46   24   53 1
    47   25   26 ar
    48   25   54 1
    49   26   27 ar
    50   26   29 1
    51   27   28 ar
    52   27   55 1
    53   28   56 1
    54   29   33 1
    55   29   30 2
    56   30   31 1
    57   31   32 1
    58   31   34 1
    59   31   35 1
    60   32   33 1
    61   32   57 1
    62   32   58 1
    63   34   59 1
    64   34   60 1
    65   34   61 1
    66   35   62 1
    67   35   63 1
    68   35   64 1
@<TRIPOS>MOLECULE
CHEMBL103971__1
   64    67     0     0     0
SMALL
USER_CHARGES

@<TRIPOS>ATOM
      1 C1         -0.0187    1.5258    0.0104 C.3       1 <0>        -0.1427
      2 C2          0.0021   -0.0041    0.0020 C.3       1 <0>        -0.0815
      3 C3          0.7309   -0.5033    1.2229 C.ar      1 <0>         0.2743
      4 C4          2.1075   -0.7142    1.1859 C.ar      1 <0>        -0.2932
      5 C5          2.7413   -1.1811    2.3522 C.ar      1 <0>         0.5023
      6 N1          2.0073   -1.4013    3.4368 N.ar      1 <0>        -0.6284
      7 C6          0.7002   -1.1864    3.4251 C.ar      1 <0>         0.6150
      8 N2          0.0726   -0.7419    2.3459 N.ar      1 <0>        -0.6007
      9 N3         -0.0304   -1.4281    4.5751 N.pl3     1 <0>        -0.8164
     10 N4          4.1064   -1.4073    2.3687 N.pl3     1 <0>        -0.8298
     11 C7          2.8842   -0.4541   -0.0502 C.ar      1 <0>        -0.0099
     12 C8          2.6517   -1.2163   -1.1944 C.ar      1 <0>        -0.0546
     13 C9          3.3751   -0.9727   -2.3424 C.ar      1 <0>        -0.1183
     14 C10         4.3361    0.0317   -2.3597 C.ar      1 <0>         0.2398
     15 C11         4.5699    0.7923   -1.2205 C.ar      1 <0>        -0.0553
     16 C12         3.8440    0.5567   -0.0718 C.ar      1 <0>        -0.0545
     17 N5          5.5945    1.8605   -1.2418 N.pl3     1 <0>         0.0371
     18 O1          5.7982    2.5225   -0.2509 O.2       1 <0>        -0.1820
     19 O2          6.2275    2.0708   -2.2501 O.3       1 <0>        -0.1280
     20 N6          5.0681    0.2764   -3.5240 N.pl3     1 <0>        -0.6686
     21 C13         4.5735    1.2387   -4.5116 C.3       1 <0>         0.1152
     22 C14         6.3305   -0.4294   -3.7574 C.3       1 <0>         0.1873
     23 C15         6.0589   -1.7127   -4.4993 C.ar      1 <0>        -0.0816
     24 C16         5.8000   -2.8744   -3.7941 C.ar      1 <0>        -0.1144
     25 C17         5.5505   -4.0525   -4.4676 C.ar      1 <0>        -0.0772
     26 C18         5.5594   -4.0705   -5.8624 C.ar      1 <0>        -0.0469
     27 C19         5.8207   -2.8957   -6.5677 C.ar      1 <0>        -0.0623
     28 C20         6.0639   -1.7229   -5.8827 C.ar      1 <0>        -0.1101
     29 C21         5.2931   -5.3309   -6.5910 C.2       1 <0>         0.3469
     30 N7          5.2921   -5.4138   -7.8846 N.2       1 <0>        -0.5223
     31 C22         5.0018   -6.8106   -8.2629 C.3       1 <0>         0.0436
     32 C23         5.2285   -7.5596   -6.9270 C.3       1 <0>         0.0259
     33 O3          5.0347   -6.5004   -5.9695 O.3       1 <0>        -0.3404
     34 C24         5.9764   -7.3000   -9.3359 C.3       1 <0>        -0.1287
     35 C25         3.5537   -6.9594   -8.7339 C.3       1 <0>        -0.1375
     36 H1          1.0039    1.9031    0.0027 H         1 <0>         0.0541
     37 H2         -0.5459    1.8868   -0.8726 H         1 <0>         0.0669
     38 H3         -0.5289    1.8773    0.9072 H         1 <0>         0.0621
     39 H4         -1.0205   -0.3814    0.0098 H         1 <0>         0.0906
     40 H5          0.5123   -0.3556   -0.8948 H         1 <0>         0.0846
     41 H6          0.4153   -1.7502    5.3742 H         1 <0>         0.4152
     42 H7         -0.9883   -1.2755    4.5822 H         1 <0>         0.4170
     43 H8          4.6347   -1.2441    1.5717 H         1 <0>         0.4103
     44 H9          4.5350   -1.7292    3.1771 H         1 <0>         0.4103
     45 H10         1.9058   -1.9972   -1.1812 H         1 <0>         0.1427
     46 H11         3.1954   -1.5628   -3.2289 H         1 <0>         0.1479
     47 H12         4.0224    1.1515    0.8118 H         1 <0>         0.1500
     48 H13         4.9603    2.2306   -4.2778 H         1 <0>         0.0495
     49 H14         4.9081    0.9433   -5.5060 H         1 <0>         0.0669
     50 H15         3.4839    1.2583   -4.4858 H         1 <0>         0.0528
     51 H16         6.9942    0.1998   -4.3506 H         1 <0>         0.0917
     52 H17         6.8026   -0.6553   -2.8013 H         1 <0>         0.0693
     53 H18         5.7934   -2.8592   -2.7142 H         1 <0>         0.1233
     54 H19         5.3492   -4.9590   -3.9160 H         1 <0>         0.1314
     55 H20         5.8288   -2.9033   -7.6476 H         1 <0>         0.1383
     56 H21         6.2623   -0.8117   -6.4276 H         1 <0>         0.1311
     57 H22         4.4920   -8.3518   -6.7926 H         1 <0>         0.1126
     58 H23         6.2422   -7.9556   -6.8675 H         1 <0>         0.0855
     59 H24         6.9974   -7.2211   -8.9626 H         1 <0>         0.0589
     60 H25         5.7575   -8.3398   -9.5786 H         1 <0>         0.0672
     61 H26         5.8686   -6.6875  -10.2312 H         1 <0>         0.0709
     62 H27         3.3930   -6.3396   -9.6159 H         1 <0>         0.0705
     63 H28         3.3578   -8.0025   -8.9822 H         1 <0>         0.0692
     64 H29         2.8787   -6.6422   -7.9390 H         1 <0>         0.0571
@<TRIPOS>BOND
     1    1    2 1
     2    1   36 1
     3    1   37 1
     4    1   38 1
     5    2    3 1
     6    2   39 1
     7    2   40 1
     8    3    8 ar
     9    3    4 ar
    10    4    5 ar
    11    4   11 1
    12    5    6 ar
    13    5   10 1
    14    6    7 ar
    15    7    8 ar
    16    7    9 1
    17    9   41 1
    18    9   42 1
    19   10   43 1
    20   10   44 1
    21   11   16 ar
    22   11   12 ar
    23   12   13 ar
    24   12   45 1
    25   13   14 ar
    26   13   46 1
    27   14   15 ar
    28   14   20 1
    29   15   16 ar
    30   15   17 1
    31   16   47 1
    32   17   18 2
    33   17   19 1
    34   20   21 1
    35   20   22 1
    36   21   48 1
    37   21   49 1
    38   21   50 1
    39   22   23 1
    40   22   51 1
    41   22   52 1
    42   23   28 ar
    43   23   24 ar
    44   24   25 ar
    45   24   53 1
    46   25   26 ar
    47   25   54 1
    48   26   27 ar
    49   26   29 1
    50   27   28 ar
    51   27   55 1
    52   28   56 1
    53   29   33 1
    54   29   30 2
    55   30   31 1
    56   31   32 1
    57   31   34 1
    58   31   35 1
    59   32   33 1
    60   32   57 1
    61   32   58 1
    62   34   59 1
    63   34   60 1
    64   34   61 1
    65   35   62 1
    66   35   63 1
    67   35   64 1
