@<TRIPOS>MOLECULE
3NXO-D2B
 44 46 0 0 0
SMALL
SF_CHARGES


@<TRIPOS>ATOM
1    N        18.3990    7.4850    2.7330  N.2        1 SUBUNIT     -0.5477
2    C        17.8910    6.8630    3.7910  C.2        1 SUBUNIT      0.5977
3    N        16.8680    5.9390    3.7380  N.pl3      1 SUBUNIT     -0.5443
4    C        16.2830    5.7940    2.5590  C.2        1 SUBUNIT      0.2483
5    C        16.7780    6.3020    1.3740  C.2        1 SUBUNIT     -0.0600
6    C        17.8910    7.1780    1.5080  C.2        1 SUBUNIT      0.4417
7    C        14.2450    2.1620   -2.8100  C.3        1 SUBUNIT      0.1544
8    C        15.2780    5.5660   -4.4420  C.3        1 SUBUNIT     -0.1082
9    N        18.3820    7.1350    5.0000  N.pl3      1 SUBUNIT     -0.6915
10   N        18.4640    7.8490    0.4940  N.2        1 SUBUNIT     -0.7208
11   C        15.9300    6.2520   -0.9910  C.2        1 SUBUNIT     -0.0978
12   C        10.9460    4.7340   -1.6950  C.2        1 SUBUNIT     -0.1061
13   C        11.1680    6.1160   -1.6290  C.2        1 SUBUNIT     -0.1058
14   C        12.0100    3.8410   -1.8470  C.2        1 SUBUNIT     -0.1202
15   C        12.4810    6.5950   -1.6690  C.2        1 SUBUNIT     -0.1109
16   C        14.9380    5.0850    0.9690  C.2        1 SUBUNIT      0.0272
17   C        15.7100    7.9530   -3.5200  C.3        1 SUBUNIT     -0.1082
18   O        14.4180    3.4600   -2.0810  O.3        1 SUBUNIT     -0.3894
19   O        15.2270    4.9440    2.3660  O.3        1 SUBUNIT     -0.2114
20   C        14.8550    6.2120   -1.9160  C.2        1 SUBUNIT     -0.0325
21   C        15.8310    5.9140    0.3830  C.2        1 SUBUNIT     -0.0309
22   C        13.3400    4.3240   -1.9300  C.2        1 SUBUNIT      0.1445
23   C        13.5610    5.7090   -1.7710  C.2        1 SUBUNIT     -0.0328
24   C        14.9520    6.6890   -3.3980  C.3        1 SUBUNIT     -0.0022
25   H        13.4939    1.5337   -2.3199  H          1 SUBUNIT      0.0378
26   H        15.1848    1.6010   -2.8409  H          1 SUBUNIT      0.0378
27   H        13.9203    2.3317   -3.8419  H          1 SUBUNIT      0.0378
28   H        15.0836    5.9109   -5.4629  H          1 SUBUNIT      0.0522
29   H        14.6653    4.6759   -4.2651  H          1 SUBUNIT      0.0522
30   H        16.3299    5.2678   -4.3820  H          1 SUBUNIT      0.0522
31   H        18.0068    6.6710    5.8124  H          1 SUBUNIT      0.3323
32   H        19.1285    7.8047    5.1018  H          1 SUBUNIT      0.3323
33   H        19.2015    8.5104    0.6803  H          1 SUBUNIT      0.3419
34   H        16.8330    5.1205    4.3252  H          1 SUBUNIT      0.3243
35   H        16.8924    6.5619   -1.3592  H          1 SUBUNIT      0.0926
36   H         9.9418    4.3533   -1.6278  H          1 SUBUNIT      0.1094
37   H        10.3409    6.7995   -1.5487  H          1 SUBUNIT      0.1081
38   H        11.8114    2.7848   -1.9004  H          1 SUBUNIT      0.1069
39   H        12.6625    7.6545   -1.6209  H          1 SUBUNIT      0.1057
40   H        14.1324    4.6109    0.4361  H          1 SUBUNIT      0.0889
41   H        16.7857    7.7773   -3.4146  H          1 SUBUNIT      0.0522
42   H        15.4084    8.6676   -2.7471  H          1 SUBUNIT      0.0522
43   H        15.5394    8.4203   -4.4955  H          1 SUBUNIT      0.0522
44   H        13.9493    6.9958   -3.7134  H          1 SUBUNIT      0.0380
@<TRIPOS>BOND
     1    1    2 2
     2    1    6 1
     3    2    3 1
     4    2    9 1
     5    3    4 1
     6    4    5 2
     7    4   19 1
     8    5    6 1
     9    5   21 1
    10    6   10 2
    11    7   18 1
    12    8   24 1
    13   11   20 2
    14   11   21 1
    15   12   13 1
    16   12   14 2
    17   13   15 2
    18   14   22 1
    19   15   23 1
    20   16   19 1
    21   16   21 2
    22   17   24 1
    23   18   22 1
    24   20   23 1
    25   20   24 1
    26   22   23 2
    27    7   25 1
    28    7   26 1
    29    7   27 1
    30    8   28 1
    31    8   29 1
    32    8   30 1
    33    9   31 1
    34    9   32 1
    35   10   33 1
    36    3   34 1
    37   11   35 1
    38   12   36 1
    39   13   37 1
    40   14   38 1
    41   15   39 1
    42   16   40 1
    43   17   41 1
    44   17   42 1
    45   17   43 1
    46   24   44 1
