@<TRIPOS>MOLECULE
2GTK-208
 53 56 0 0 0
SMALL
SF_CHARGES


@<TRIPOS>ATOM
1    C         0.2960   28.7680   15.4750  C.3        1 SUBUNIT     -0.0975
2    C        -0.1200   27.8040   16.5870  C.3        1 SUBUNIT      0.2096
3    O         0.3980   28.2430   17.8380  O.3        1 SUBUNIT     -0.4369
4    C        -0.0240   27.4050   18.9110  C.3        1 SUBUNIT      0.2203
5    C        -1.3820   27.8110   19.4020  C.2        1 SUBUNIT      0.7510
6    O        -2.1170   26.9220   19.9260  O.co2      1 SUBUNIT     -0.8735
7    O        -1.7210   29.0300   19.3250  O.co2      1 SUBUNIT     -0.8735
8    C         0.9770   27.4680   20.0680  C.3        1 SUBUNIT     -0.0412
9    C         2.2210   26.6840   19.7700  C.2        1 SUBUNIT     -0.0313
10   C         3.2640   27.2670   19.0130  C.2        1 SUBUNIT     -0.1000
11   C         2.3360   25.3940   20.2620  C.2        1 SUBUNIT     -0.1059
12   C         3.5190   24.6780   20.0120  C.2        1 SUBUNIT     -0.0151
13   C         3.9450   23.3650   20.3950  C.2        1 SUBUNIT     -0.1098
14   C         5.2050   23.1970   19.9190  C.2        1 SUBUNIT      0.0007
15   C         4.5360   25.2810   19.2860  C.2        1 SUBUNIT      0.0899
16   C         4.4370   26.5740   18.7580  C.2        1 SUBUNIT     -0.1109
17   N         5.6220   24.3690   19.2270  N.pl3      1 SUBUNIT     -0.2468
18   C         6.9290   24.5960   18.5960  C.3        1 SUBUNIT      0.1491
19   C         6.8700   24.2440   17.1430  C.2        1 SUBUNIT      0.2177
20   C         7.1540   24.9540   16.0390  C.2        1 SUBUNIT      0.0822
21   C         7.6300   26.3670   15.8900  C.3        1 SUBUNIT     -0.0822
22   O         6.9430   24.1820   14.9140  O.3        1 SUBUNIT     -0.2162
23   N         6.4580   22.9710   16.6950  N.2        1 SUBUNIT     -0.5223
24   C         6.5170   22.9690   15.3210  C.2        1 SUBUNIT      0.3985
25   C         6.1750   21.8420   14.4770  C.2        1 SUBUNIT     -0.0514
26   C         6.3860   21.8500   13.0830  C.2        1 SUBUNIT      0.0040
27   Cl        7.0720   23.2420   12.2750  Cl         1 SUBUNIT     -0.1125
28   C         6.0550   20.7330   12.3140  C.2        1 SUBUNIT     -0.1167
29   C         5.5110   19.6080   12.9190  C.2        1 SUBUNIT     -0.1109
30   C         5.2930   19.5900   14.2990  C.2        1 SUBUNIT     -0.1118
31   C         5.6210   20.6950   15.0690  C.2        1 SUBUNIT     -0.1176
32   H        -0.0821   29.7772   15.6688  H          1 SUBUNIT      0.0440
33   H        -0.0961   28.4420   14.5060  H          1 SUBUNIT      0.0440
34   H         1.3864   28.8268   15.3942  H          1 SUBUNIT      0.0440
35   H        -1.2117   27.7618   16.6608  H          1 SUBUNIT      0.0219
36   H         0.2716   26.8019   16.3835  H          1 SUBUNIT      0.0219
37   H        -0.0742   26.3930   18.4959  H          1 SUBUNIT      0.0170
38   H         1.2556   28.5120   20.2456  H          1 SUBUNIT      0.0371
39   H         0.5111   27.0556   20.9691  H          1 SUBUNIT      0.0371
40   H         3.1551   28.2643   18.6241  H          1 SUBUNIT      0.0998
41   H         1.5304   24.9550   20.8242  H          1 SUBUNIT      0.1000
42   H         3.3906   22.6316   20.9540  H          1 SUBUNIT      0.1004
43   H         5.7843   22.3008   20.0567  H          1 SUBUNIT      0.0891
44   H         5.2315   27.0136   18.1807  H          1 SUBUNIT      0.1013
45   H         7.2004   25.6511   18.7058  H          1 SUBUNIT      0.0242
46   H         7.6790   23.9720   19.0931  H          1 SUBUNIT      0.0242
47   H         6.9113   27.0709   16.3226  H          1 SUBUNIT      0.0435
48   H         7.7624   26.6272   14.8347  H          1 SUBUNIT      0.0435
49   H         8.5902   26.5130   16.3957  H          1 SUBUNIT      0.0435
50   H         6.2206   20.7412   11.2509  H          1 SUBUNIT      0.1052
51   H         5.2579   18.7499   12.3211  H          1 SUBUNIT      0.1059
52   H         4.8701   18.7191   14.7685  H          1 SUBUNIT      0.1065
53   H         5.4468   20.6671   16.1304  H          1 SUBUNIT      0.1071
@<TRIPOS>BOND
     1    1    2 1
     2    2    3 1
     3    3    4 1
     4    4    5 1
     5    4    8 1
     6    5    6 2
     7    5    7 1
     8    8    9 1
     9    9   10 1
    10    9   11 2
    11   10   16 2
    12   11   12 1
    13   12   13 1
    14   12   15 2
    15   13   14 2
    16   14   17 1
    17   15   16 1
    18   15   17 1
    19   17   18 1
    20   18   19 1
    21   19   20 2
    22   19   23 1
    23   20   21 1
    24   20   22 1
    25   22   24 1
    26   23   24 2
    27   24   25 1
    28   25   26 2
    29   25   31 1
    30   26   27 1
    31   26   28 1
    32   28   29 2
    33   29   30 1
    34   30   31 2
    35    1   32 1
    36    1   33 1
    37    1   34 1
    38    2   35 1
    39    2   36 1
    40    4   37 1
    41    8   38 1
    42    8   39 1
    43   10   40 1
    44   11   41 1
    45   13   42 1
    46   14   43 1
    47   16   44 1
    48   18   45 1
    49   18   46 1
    50   21   47 1
    51   21   48 1
    52   21   49 1
    53   28   50 1
    54   29   51 1
    55   30   52 1
    56   31   53 1
