@<TRIPOS>MOLECULE
CHEMBL274513
   40    43     0     0     0
SMALL
USER_CHARGES

@<TRIPOS>ATOM
      1 C1         -0.0184    1.5028    0.0103 C.3       1 <0>        -0.1302
      2 C2          0.0021   -0.0041    0.0020 C.2       1 <0>         0.0279
      3 C3          0.0061   -0.6954   -1.1674 C.2       1 <0>        -0.2291
      4 C4          0.0259   -2.1051   -1.1488 C.2       1 <0>         0.5162
      5 O1          0.0297   -2.7124   -2.2045 O.2       1 <0>        -0.4573
      6 O2          0.0411   -2.7950    0.0025 O.3       1 <0>        -0.2688
      7 C5          0.0380   -2.1693    1.1991 C.ar      1 <0>         0.1865
      8 C6          0.0243   -0.7629    1.2543 C.ar      1 <0>        -0.1820
      9 C7          0.0261   -0.1105    2.4922 C.ar      1 <0>        -0.0138
     10 C8          0.0465   -0.8421    3.6444 C.ar      1 <0>        -0.2255
     11 C9          0.0655   -2.2344    3.5961 C.ar      1 <0>         0.1870
     12 C10         0.0533   -2.8969    2.3791 C.ar      1 <0>        -0.1684
     13 O3          0.0862   -2.9478    4.7507 O.3       1 <0>        -0.2971
     14 C11         0.0871   -2.2057    5.9719 C.3       1 <0>         0.1337
     15 C12         0.1112   -3.1589    7.1389 C.2       1 <0>         0.1036
     16 C13         0.1357   -4.5628    7.0583 C.2       1 <0>        -0.2643
     17 C14         0.1520   -5.0542    8.3123 C.2       1 <0>         0.1095
     18 O4          0.1388   -4.0176    9.1641 O.3       1 <0>        -0.0689
     19 N1          0.1186   -2.8261    8.3987 N.2       1 <0>        -0.3087
     20 C15         0.1799   -6.5123    8.6919 C.3       1 <0>        -0.1081
     21 C16        -0.0083   -6.8613   10.1697 C.3       1 <0>        -0.1622
     22 C17         1.3691   -7.0043    9.5192 C.3       1 <0>        -0.1555
     23 C18        -0.0109    0.0426   -2.4812 C.3       1 <0>        -0.0975
     24 H1          1.0042    1.8801    0.0026 H         1 <0>         0.0918
     25 H2         -0.5455    1.8639   -0.8728 H         1 <0>         0.0879
     26 H3         -0.5286    1.8543    0.9071 H         1 <0>         0.0795
     27 H4          0.0118    0.9686    2.5359 H         1 <0>         0.1458
     28 H5          0.0483   -0.3384    4.5997 H         1 <0>         0.1427
     29 H6          0.0678   -3.9764    2.3498 H         1 <0>         0.1547
     30 H7          0.9686   -1.5656    6.0074 H         1 <0>         0.1009
     31 H8         -0.8112   -1.5904    6.0238 H         1 <0>         0.1011
     32 H9          0.1402   -5.1455    6.1490 H         1 <0>         0.1660
     33 H10        -0.2388   -7.1980    7.9553 H         1 <0>         0.1434
     34 H11        -0.1523   -6.0362   10.8672 H         1 <0>         0.1056
     35 H12        -0.5511   -7.7767   10.4055 H         1 <0>         0.1101
     36 H13         1.7326   -8.0138    9.3271 H         1 <0>         0.1117
     37 H14         2.1314   -6.2734    9.7889 H         1 <0>         0.1018
     38 H15         1.0125    0.2352   -2.8031 H         1 <0>         0.0760
     39 H16        -0.5199   -0.5627   -3.2313 H         1 <0>         0.0775
     40 H17        -0.5377    0.9891   -2.3595 H         1 <0>         0.0764
@<TRIPOS>BOND
     1    1    2 1
     2    1   24 1
     3    1   25 1
     4    1   26 1
     5    2    8 1
     6    2    3 2
     7    3    4 1
     8    3   23 1
     9    4    5 2
    10    4    6 1
    11    6    7 1
    12    7   12 ar
    13    7    8 ar
    14    8    9 ar
    15    9   10 ar
    16    9   27 1
    17   10   11 ar
    18   10   28 1
    19   11   12 ar
    20   11   13 1
    21   12   29 1
    22   13   14 1
    23   14   15 1
    24   14   30 1
    25   14   31 1
    26   15   19 2
    27   15   16 1
    28   16   17 2
    29   16   32 1
    30   17   18 1
    31   17   20 1
    32   18   19 1
    33   20   22 1
    34   20   21 1
    35   20   33 1
    36   21   22 1
    37   21   34 1
    38   21   35 1
    39   22   36 1
    40   22   37 1
    41   23   38 1
    42   23   39 1
    43   23   40 1
@<TRIPOS>MOLECULE
CHEMBL522271
   40    42     0     0     0
SMALL
USER_CHARGES

@<TRIPOS>ATOM
      1 C1         -0.0178    1.4608    0.0101 C.3       1 <0>         0.1030
      2 N1          0.0021   -0.0041    0.0020 N.pl3     1 <0>        -0.6288
      3 C2         -1.1800   -0.8798    0.0027 C.3       1 <0>         0.0890
      4 C3         -0.5655   -2.3043   -0.0129 C.3       1 <0>         0.2826
      5 N2          0.8830   -2.0638   -0.0155 N.2       1 <0>        -0.5725
      6 C4          1.1274   -0.7913   -0.0134 C.2       1 <0>         0.4268
      7 C5          2.4883   -0.2393   -0.0225 C.2       1 <0>        -0.1281
      8 C6          3.5495   -1.0662   -0.0376 C.2       1 <0>        -0.0231
      9 C7          4.9142   -0.5127   -0.0467 C.ar      1 <0>        -0.0557
     10 C8          5.1106    0.8716   -0.0338 C.ar      1 <0>        -0.0890
     11 C9          6.3905    1.3836   -0.0419 C.ar      1 <0>        -0.0975
     12 C10         7.4814    0.5303   -0.0628 C.ar      1 <0>        -0.0241
     13 C11         7.2948   -0.8431   -0.0761 C.ar      1 <0>        -0.0325
     14 C12         6.0189   -1.3689   -0.0624 C.ar      1 <0>        -0.0750
     15 Cl1         8.6686   -1.9040   -0.1034 Cl        1 <0>        -0.0403
     16 Cl2         9.0897    1.1839   -0.0729 Cl        1 <0>        -0.0414
     17 N3         -0.8597   -3.1204   -1.2013 N.am      1 <0>        -0.5968
     18 C13        -1.6112   -2.6216   -2.1932 C.2       1 <0>         0.7016
     19 O1         -1.8234   -3.3377   -3.1521 O.2       1 <0>        -0.5568
     20 N4         -2.1431   -1.3981   -2.2071 N.am      1 <0>        -0.5627
     21 C14        -1.9969   -0.5022   -1.2158 C.2       1 <0>         0.5220
     22 O2         -2.5112    0.5928   -1.2960 O.2       1 <0>        -0.4808
     23 C15        -2.9363   -1.0071   -3.3751 C.3       1 <0>         0.0714
     24 C16        -0.3294   -4.4823   -1.3011 C.3       1 <0>         0.1099
     25 H1          1.0048    1.8381    0.0023 H         1 <0>         0.0837
     26 H2         -0.5450    1.8219   -0.8730 H         1 <0>         0.0696
     27 H3         -0.5280    1.8123    0.9069 H         1 <0>         0.0696
     28 H4         -1.7642   -0.7208    0.9091 H         1 <0>         0.1381
     29 H5         -0.8490   -2.8394    0.8934 H         1 <0>         0.1274
     30 H6          2.6372    0.8303   -0.0170 H         1 <0>         0.1376
     31 H7          3.4006   -2.1359   -0.0431 H         1 <0>         0.1460
     32 H8          4.2612    1.5385   -0.0178 H         1 <0>         0.1423
     33 H9          6.5430    2.4528   -0.0323 H         1 <0>         0.1476
     34 H10         5.8743   -2.4391   -0.0683 H         1 <0>         0.1498
     35 H11        -2.9646   -1.8315   -4.0876 H         1 <0>         0.1067
     36 H12        -3.9512   -0.7641   -3.0603 H         1 <0>         0.0774
     37 H13        -2.4834   -0.1349   -3.8464 H         1 <0>         0.0747
     38 H14        -1.0431   -5.1829   -0.8675 H         1 <0>         0.0596
     39 H15        -0.1657   -4.7326   -2.3493 H         1 <0>         0.0823
     40 H16         0.6152   -4.5449   -0.7608 H         1 <0>         0.0865
@<TRIPOS>BOND
     1    1    2 1
     2    1   25 1
     3    1   26 1
     4    1   27 1
     5    2    6 1
     6    2    3 1
     7    3   21 1
     8    3    4 1
     9    3   28 1
    10    4    5 1
    11    4   17 1
    12    4   29 1
    13    5    6 2
    14    6    7 1
    15    7    8 2
    16    7   30 1
    17    8    9 1
    18    8   31 1
    19    9   14 ar
    20    9   10 ar
    21   10   11 ar
    22   10   32 1
    23   11   12 ar
    24   11   33 1
    25   12   13 ar
    26   12   16 1
    27   13   14 ar
    28   13   15 1
    29   14   34 1
    30   17   18 am
    31   17   24 1
    32   18   19 2
    33   18   20 am
    34   20   21 am
    35   20   23 1
    36   21   22 2
    37   23   35 1
    38   23   36 1
    39   23   37 1
    40   24   38 1
    41   24   39 1
    42   24   40 1
@<TRIPOS>MOLECULE
CHEMBL522271__1
   40    42     0     0     0
SMALL
USER_CHARGES

@<TRIPOS>ATOM
      1 C1         -0.0178    1.4608    0.0101 C.3       1 <0>         0.1229
      2 N1          0.0021   -0.0041    0.0020 N.pl3     1 <0>        -0.6406
      3 C2         -1.1281   -0.9305    0.0018 C.3       1 <0>         0.0582
      4 C3         -0.5436   -1.9602   -1.0164 C.3       1 <0>         0.2821
      5 N2          0.8280   -2.0303   -0.5704 N.2       1 <0>        -0.5354
      6 C4          1.1113   -0.8640   -0.0137 C.2       1 <0>         0.4276
      7 C5          2.4311   -0.5135    0.5267 C.2       1 <0>        -0.1234
      8 C6          3.4394   -1.4023    0.4689 C.2       1 <0>        -0.0222
      9 C7          4.7629   -1.0507    1.0108 C.ar      1 <0>        -0.0566
     10 C8          4.9734    0.2038    1.5912 C.ar      1 <0>        -0.0878
     11 C9          6.2144    0.5267    2.0971 C.ar      1 <0>        -0.0979
     12 C10         7.2524   -0.3882    2.0317 C.ar      1 <0>        -0.0235
     13 C11         7.0515   -1.6336    1.4573 C.ar      1 <0>        -0.0330
     14 C12         5.8126   -1.9718    0.9523 C.ar      1 <0>        -0.0745
     15 Cl1         8.3593   -2.7727    1.3792 Cl        1 <0>        -0.0404
     16 Cl2         8.8119    0.0271    2.6713 Cl        1 <0>        -0.0412
     17 N3         -1.4348   -3.0892   -1.0242 N.am      1 <0>        -0.6036
     18 C13        -2.7636   -2.7877   -1.0979 C.2       1 <0>         0.7123
     19 O1         -3.5734   -3.6906   -1.1768 O.2       1 <0>        -0.5310
     20 N4         -3.1995   -1.5118   -1.0847 N.am      1 <0>        -0.5813
     21 C14        -2.4316   -0.5012   -0.5842 C.2       1 <0>         0.5383
     22 O2         -2.7823    0.6590   -0.6131 O.2       1 <0>        -0.4676
     23 C15        -4.5278   -1.2037   -1.6201 C.3       1 <0>         0.0813
     24 C16        -0.9486   -4.4696   -0.9580 C.3       1 <0>         0.1097
     25 H1          1.0048    1.8381    0.0023 H         1 <0>         0.0818
     26 H2         -0.5450    1.8219   -0.8730 H         1 <0>         0.0671
     27 H3         -0.5280    1.8123    0.9069 H         1 <0>         0.0630
     28 H4         -1.2720   -1.3703    0.9888 H         1 <0>         0.1220
     29 H5         -0.5630   -1.5064   -2.0073 H         1 <0>         0.0828
     30 H6          2.5923    0.4579    0.9705 H         1 <0>         0.1414
     31 H7          3.2782   -2.3736    0.0251 H         1 <0>         0.1461
     32 H8          4.1653    0.9185    1.6428 H         1 <0>         0.1437
     33 H9          6.3779    1.4956    2.5453 H         1 <0>         0.1477
     34 H10         5.6557   -2.9440    0.5089 H         1 <0>         0.1501
     35 H11        -4.9984   -2.1207   -1.9746 H         1 <0>         0.1013
     36 H12        -5.1416   -0.7600   -0.8361 H         1 <0>         0.0784
     37 H13        -4.4319   -0.5010   -2.4478 H         1 <0>         0.0771
     38 H14        -0.8774   -4.7801    0.0844 H         1 <0>         0.0589
     39 H15        -1.6419   -5.1247   -1.4856 H         1 <0>         0.0816
     40 H16         0.0350   -4.5311   -1.4235 H         1 <0>         0.0847
@<TRIPOS>BOND
     1    1    2 1
     2    1   25 1
     3    1   26 1
     4    1   27 1
     5    2    6 1
     6    2    3 1
     7    3   21 1
     8    3    4 1
     9    3   28 1
    10    4    5 1
    11    4   17 1
    12    4   29 1
    13    5    6 2
    14    6    7 1
    15    7    8 2
    16    7   30 1
    17    8    9 1
    18    8   31 1
    19    9   14 ar
    20    9   10 ar
    21   10   11 ar
    22   10   32 1
    23   11   12 ar
    24   11   33 1
    25   12   13 ar
    26   12   16 1
    27   13   14 ar
    28   13   15 1
    29   14   34 1
    30   17   18 am
    31   17   24 1
    32   18   19 2
    33   18   20 am
    34   20   21 am
    35   20   23 1
    36   21   22 2
    37   23   35 1
    38   23   36 1
    39   23   37 1
    40   24   38 1
    41   24   39 1
    42   24   40 1
@<TRIPOS>MOLECULE
CHEMBL522271__2
   40    42     0     0     0
SMALL
USER_CHARGES

@<TRIPOS>ATOM
      1 C1         -0.0178    1.4608    0.0101 C.3       1 <0>         0.1227
      2 N1          0.0021   -0.0041    0.0020 N.pl3     1 <0>        -0.6403
      3 C2         -1.1281   -0.9305    0.0019 C.3       1 <0>         0.0580
      4 C3         -0.5346   -1.9715    1.0034 C.3       1 <0>         0.2825
      5 N2          0.8329   -2.0366    0.5444 N.2       1 <0>        -0.5364
      6 C4          1.1113   -0.8640   -0.0137 C.2       1 <0>         0.4273
      7 C5          2.4202   -0.5074   -0.5761 C.2       1 <0>        -0.1232
      8 C6          3.4294   -1.3967   -0.5479 C.2       1 <0>        -0.0217
      9 C7          4.7420   -1.0390   -1.1119 C.ar      1 <0>        -0.0569
     10 C8          4.9444    0.2260   -1.6721 C.ar      1 <0>        -0.0877
     11 C9          6.1755    0.5549   -2.1980 C.ar      1 <0>        -0.0979
     12 C10         7.2115   -0.3643   -2.1726 C.ar      1 <0>        -0.0234
     13 C11         7.0182   -1.6205   -1.6194 C.ar      1 <0>        -0.0331
     14 C12         5.7925   -1.9606   -1.0843 C.ar      1 <0>        -0.0743
     15 Cl1         8.3227   -2.7657   -1.5935 Cl        1 <0>        -0.0403
     16 Cl2         8.7585    0.0586   -2.8372 Cl        1 <0>        -0.0411
     17 N3         -1.4257   -3.1005    1.0064 N.am      1 <0>        -0.6035
     18 C13        -2.7539   -2.8000    1.0953 C.2       1 <0>         0.7120
     19 O1         -3.5630   -3.7037    1.1717 O.2       1 <0>        -0.5308
     20 N4         -3.1897   -1.5240    1.1007 N.am      1 <0>        -0.5813
     21 C14        -2.4263   -0.5078    0.6043 C.2       1 <0>         0.5385
     22 O2         -2.7763    0.6520    0.6499 O.2       1 <0>        -0.4677
     23 C15        -4.5133   -1.2221    1.6513 C.3       1 <0>         0.0814
     24 C16        -0.9403   -4.4801    0.9196 C.3       1 <0>         0.1083
     25 H1          1.0048    1.8381    0.0023 H         1 <0>         0.0818
     26 H2         -0.5450    1.8219   -0.8730 H         1 <0>         0.0629
     27 H3         -0.5280    1.8123    0.9069 H         1 <0>         0.0672
     28 H4         -1.2808   -1.3592   -0.9886 H         1 <0>         0.1220
     29 H5         -0.5452   -1.5288    1.9994 H         1 <0>         0.0824
     30 H6          2.5727    0.4688   -1.0122 H         1 <0>         0.1417
     31 H7          3.2769   -2.3729   -0.1118 H         1 <0>         0.1461
     32 H8          4.1378    0.9438   -1.6931 H         1 <0>         0.1437
     33 H9          6.3326    1.5317   -2.6312 H         1 <0>         0.1478
     34 H10         5.6440   -2.9379   -0.6494 H         1 <0>         0.1501
     35 H11        -4.9808   -2.1432    1.9993 H         1 <0>         0.1012
     36 H12        -4.4101   -0.5290    2.4862 H         1 <0>         0.0771
     37 H13        -5.1339   -0.7694    0.8779 H         1 <0>         0.0784
     38 H14        -0.7610   -4.8660    1.9230 H         1 <0>         0.0621
     39 H15        -1.6876   -5.0974    0.4211 H         1 <0>         0.0790
     40 H16        -0.0113   -4.5031    0.3499 H         1 <0>         0.0854
@<TRIPOS>BOND
     1    1    2 1
     2    1   25 1
     3    1   26 1
     4    1   27 1
     5    2    6 1
     6    2    3 1
     7    3   21 1
     8    3    4 1
     9    3   28 1
    10    4    5 1
    11    4   17 1
    12    4   29 1
    13    5    6 2
    14    6    7 1
    15    7    8 2
    16    7   30 1
    17    8    9 1
    18    8   31 1
    19    9   14 ar
    20    9   10 ar
    21   10   11 ar
    22   10   32 1
    23   11   12 ar
    24   11   33 1
    25   12   13 ar
    26   12   16 1
    27   13   14 ar
    28   13   15 1
    29   14   34 1
    30   17   18 am
    31   17   24 1
    32   18   19 2
    33   18   20 am
    34   20   21 am
    35   20   23 1
    36   21   22 2
    37   23   35 1
    38   23   36 1
    39   23   37 1
    40   24   38 1
    41   24   39 1
    42   24   40 1
@<TRIPOS>MOLECULE
CHEMBL522271__3
   40    42     0     0     0
SMALL
USER_CHARGES

@<TRIPOS>ATOM
      1 C1         -0.0178    1.4608    0.0101 C.3       1 <0>         0.1034
      2 N1          0.0021   -0.0041    0.0020 N.pl3     1 <0>        -0.6292
      3 C2         -1.1800   -0.8798    0.0027 C.3       1 <0>         0.0888
      4 C3         -0.5655   -2.3043   -0.0038 C.3       1 <0>         0.2826
      5 N2          0.8830   -2.0638   -0.0124 N.2       1 <0>        -0.5710
      6 C4          1.1274   -0.7913   -0.0134 C.2       1 <0>         0.4258
      7 C5          2.4883   -0.2393   -0.0264 C.2       1 <0>        -0.1279
      8 C6          3.5495   -1.0662   -0.0413 C.2       1 <0>        -0.0234
      9 C7          4.9142   -0.5126   -0.0542 C.ar      1 <0>        -0.0556
     10 C8          5.1105    0.8717   -0.0452 C.ar      1 <0>        -0.0890
     11 C9          6.3904    1.3837   -0.0570 C.ar      1 <0>        -0.0975
     12 C10         7.4813    0.5304   -0.0776 C.ar      1 <0>        -0.0242
     13 C11         7.2946   -0.8431   -0.0871 C.ar      1 <0>        -0.0325
     14 C12         6.0188   -1.3688   -0.0697 C.ar      1 <0>        -0.0750
     15 Cl1         8.6685   -1.9040   -0.1142 Cl        1 <0>        -0.0404
     16 Cl2         9.0895    1.1840   -0.0923 Cl        1 <0>        -0.0414
     17 N3         -0.8483   -3.1339    1.1780 N.am      1 <0>        -0.5971
     18 C13        -1.5909   -2.6468    2.1823 C.2       1 <0>         0.7021
     19 O1         -1.7943   -3.3739    3.1348 O.2       1 <0>        -0.5568
     20 N4         -2.1231   -1.4238    2.2150 N.am      1 <0>        -0.5628
     21 C14        -1.9852   -0.5161    1.2332 C.2       1 <0>         0.5224
     22 O2         -2.4986    0.5778    1.3308 O.2       1 <0>        -0.4807
     23 C15        -2.9067   -1.0468    3.3940 C.3       1 <0>         0.0715
     24 C16        -0.3171   -4.4969    1.2573 C.3       1 <0>         0.1156
     25 H1          1.0048    1.8381    0.0023 H         1 <0>         0.0837
     26 H2         -0.5450    1.8219   -0.8730 H         1 <0>         0.0693
     27 H3         -0.5280    1.8123    0.9069 H         1 <0>         0.0695
     28 H4         -1.7729   -0.7106   -0.8962 H         1 <0>         0.1378
     29 H5         -0.8577   -2.8291   -0.9134 H         1 <0>         0.1273
     30 H6          2.6372    0.8304   -0.0239 H         1 <0>         0.1376
     31 H7          3.4006   -2.1359   -0.0437 H         1 <0>         0.1460
     32 H8          4.2611    1.5386   -0.0295 H         1 <0>         0.1423
     33 H9          6.5429    2.4529   -0.0504 H         1 <0>         0.1476
     34 H10         5.8742   -2.4391   -0.0726 H         1 <0>         0.1498
     35 H11        -2.9288   -1.8795    4.0970 H         1 <0>         0.1068
     36 H12        -2.4501   -0.1800    3.8718 H         1 <0>         0.0747
     37 H13        -3.9242   -0.8005    3.0905 H         1 <0>         0.0774
     38 H14         0.6642   -4.4774    1.7312 H         1 <0>         0.0628
     39 H15        -0.9930   -5.1166    1.8466 H         1 <0>         0.0821
     40 H16        -0.2273   -4.9108    0.2529 H         1 <0>         0.0777
@<TRIPOS>BOND
     1    1    2 1
     2    1   25 1
     3    1   26 1
     4    1   27 1
     5    2    6 1
     6    2    3 1
     7    3   21 1
     8    3    4 1
     9    3   28 1
    10    4    5 1
    11    4   17 1
    12    4   29 1
    13    5    6 2
    14    6    7 1
    15    7    8 2
    16    7   30 1
    17    8    9 1
    18    8   31 1
    19    9   14 ar
    20    9   10 ar
    21   10   11 ar
    22   10   32 1
    23   11   12 ar
    24   11   33 1
    25   12   13 ar
    26   12   16 1
    27   13   14 ar
    28   13   15 1
    29   14   34 1
    30   17   18 am
    31   17   24 1
    32   18   19 2
    33   18   20 am
    34   20   21 am
    35   20   23 1
    36   21   22 2
    37   23   35 1
    38   23   36 1
    39   23   37 1
    40   24   38 1
    41   24   39 1
    42   24   40 1
@<TRIPOS>MOLECULE
CHEMBL1213968
   39    41     0     0     0
SMALL
USER_CHARGES

@<TRIPOS>ATOM
      1 C1         -0.0184    1.5028    0.0103 C.3       1 <0>        -0.1590
      2 C2          0.0021   -0.0041    0.0020 C.2       1 <0>         0.1404
      3 N1          0.0216   -0.6595    1.1232 N.2       1 <0>        -0.2232
      4 N2          0.0237    0.0345    2.3403 N.pl3     1 <0>        -0.5187
      5 C3          0.0445   -0.6644    3.5358 C.2       1 <0>         0.3870
      6 N3          0.0446   -0.2032    4.7738 N.2       1 <0>        -0.5556
      7 C4          0.0666   -1.0243    5.8129 C.2       1 <0>         0.1329
      8 C5          0.0897   -2.3746    5.6007 C.2       1 <0>        -0.2286
      9 S1          0.0706   -2.4299    3.8136 S.3       1 <0>         0.0488
     10 C6          0.0667   -0.4836    7.1941 C.ar      1 <0>         0.0138
     11 C7          0.0962   -1.3517    8.2848 C.ar      1 <0>        -0.1398
     12 C8          0.0967   -0.8461    9.5689 C.ar      1 <0>        -0.0797
     13 C9          0.0675    0.5203    9.7780 C.ar      1 <0>        -0.2031
     14 C10         0.0380    1.3914    8.6978 C.ar      1 <0>         0.1236
     15 C11         0.0430    0.8929    7.4053 C.ar      1 <0>        -0.1185
     16 O1          0.0088    2.7338    8.9081 O.3       1 <0>        -0.3172
     17 C12         0.0105    3.1778   10.2663 C.3       1 <0>         0.0267
     18 C13        -0.0001   -0.7340   -1.2782 C.ar      1 <0>        -0.0011
     19 C14        -0.0151   -0.0466   -2.4997 C.ar      1 <0>        -0.1469
     20 C15        -0.0162   -0.7700   -3.6731 C.ar      1 <0>         0.1011
     21 N4         -0.0037   -2.0897   -3.6561 N.ar      1 <0>        -0.4759
     22 C16         0.0107   -2.7765   -2.5292 C.ar      1 <0>         0.1014
     23 C17         0.0187   -2.1352   -1.3089 C.ar      1 <0>        -0.1357
     24 H1          1.0042    1.8801    0.0026 H         1 <0>         0.0944
     25 H2         -0.5455    1.8639   -0.8728 H         1 <0>         0.0953
     26 H3         -0.5286    1.8543    0.9071 H         1 <0>         0.0743
     27 H4          0.0106    1.0043    2.3456 H         1 <0>         0.4085
     28 H5          0.1093   -3.1843    6.3151 H         1 <0>         0.2009
     29 H6          0.1184   -2.4196    8.1247 H         1 <0>         0.1282
     30 H7          0.1196   -1.5196   10.4129 H         1 <0>         0.1299
     31 H8          0.0673    0.9110   10.7849 H         1 <0>         0.1293
     32 H9          0.0242    1.5696    6.5638 H         1 <0>         0.1393
     33 H10        -0.0144    4.2672   10.2925 H         1 <0>         0.1008
     34 H11        -0.8662    2.7819   10.7791 H         1 <0>         0.0560
     35 H12         0.9133    2.8230   10.7635 H         1 <0>         0.0560
     36 H13        -0.0261    1.0332   -2.5212 H         1 <0>         0.1437
     37 H14        -0.0277   -0.2498   -4.6194 H         1 <0>         0.1626
     38 H15         0.0202   -3.8559   -2.5635 H         1 <0>         0.1622
     39 H16         0.0350   -2.7037   -0.3908 H         1 <0>         0.1458
@<TRIPOS>BOND
     1    1    2 1
     2    1   24 1
     3    1   25 1
     4    1   26 1
     5    2    3 2
     6    2   18 1
     7    3    4 1
     8    4    5 1
     9    4   27 1
    10    5    9 1
    11    5    6 2
    12    6    7 1
    13    7    8 2
    14    7   10 1
    15    8    9 1
    16    8   28 1
    17   10   15 ar
    18   10   11 ar
    19   11   12 ar
    20   11   29 1
    21   12   13 ar
    22   12   30 1
    23   13   14 ar
    24   13   31 1
    25   14   15 ar
    26   14   16 1
    27   15   32 1
    28   16   17 1
    29   17   33 1
    30   17   34 1
    31   17   35 1
    32   18   23 ar
    33   18   19 ar
    34   19   20 ar
    35   19   36 1
    36   20   21 ar
    37   20   37 1
    38   21   22 ar
    39   22   23 ar
    40   22   38 1
    41   23   39 1
@<TRIPOS>MOLECULE
CHEMBL151125
   55    56     0     0     0
SMALL
USER_CHARGES

@<TRIPOS>ATOM
      1 C1         -0.0318    1.3679    0.4292 C.3       1 <0>        -0.1912
      2 C2          0.0241   -0.1560    0.3042 C.3       1 <0>         0.0853
      3 C3          0.6709   -0.5349   -1.0295 C.3       1 <0>        -0.0753
      4 C4          0.8380   -2.0309   -1.0997 C.ar      1 <0>        -0.0551
      5 C5          1.9972   -2.6195   -0.6284 C.ar      1 <0>        -0.1164
      6 C6          2.1535   -3.9916   -0.6914 C.ar      1 <0>        -0.1041
      7 C7          1.1515   -4.7783   -1.2262 C.ar      1 <0>        -0.1253
      8 C8         -0.0121   -4.1904   -1.6996 C.ar      1 <0>         0.1059
      9 C9         -0.1691   -2.8136   -1.6297 C.ar      1 <0>        -0.0893
     10 O1         -0.9992   -4.9623   -2.2266 O.3       1 <0>        -0.3095
     11 C10        -1.7011   -5.7499   -1.3893 C.2       1 <0>         0.6473
     12 O2         -1.5181   -5.6771   -0.1902 O.2       1 <0>        -0.5416
     13 N1         -2.6063   -6.6187   -1.8814 N.am      1 <0>        -0.5954
     14 C11        -2.8268   -6.7064   -3.3271 C.3       1 <0>         0.0802
     15 C12        -3.3697   -7.4754   -0.9707 C.3       1 <0>         0.1696
     16 C13        -4.1792   -6.6035   -0.0087 C.3       1 <0>        -0.1395
     17 C14        -4.9765   -7.4982    0.9424 C.3       1 <0>        -0.1131
     18 C15        -4.0138   -8.3799    1.7405 C.3       1 <0>        -0.1225
     19 C16        -3.2043   -9.2518    0.7785 C.3       1 <0>        -0.1134
     20 C17        -2.4070   -8.3571   -0.1727 C.3       1 <0>        -0.1399
     21 N2         -1.3384   -0.7022    0.3604 N.3       1 <0>        -0.5256
     22 C18        -2.1713   -0.1511   -0.7168 C.3       1 <0>         0.0140
     23 C19        -1.9489   -0.4600    1.6744 C.3       1 <0>         0.1634
     24 C20        -3.2051   -1.2200    1.7793 C.1       1 <0>        -0.1811
     25 C21        -4.2070   -1.8262    1.8630 C.1       1 <0>        -0.1941
     26 H1          0.9791    1.7732    0.3876 H         1 <0>         0.0664
     27 H2         -0.6219    1.7783   -0.3903 H         1 <0>         0.0621
     28 H3         -0.4926    1.6378    1.3794 H         1 <0>         0.0595
     29 H4          0.6142   -0.5663    1.1237 H         1 <0>         0.0888
     30 H5          0.0349   -0.2014   -1.8495 H         1 <0>         0.0776
     31 H6          1.6470   -0.0561   -1.1090 H         1 <0>         0.0832
     32 H7          2.7819   -2.0061   -0.2107 H         1 <0>         0.1251
     33 H8          3.0598   -4.4489   -0.3226 H         1 <0>         0.1276
     34 H9          1.2743   -5.8502   -1.2758 H         1 <0>         0.1219
     35 H10        -1.0761   -2.3539   -1.9936 H         1 <0>         0.1268
     36 H11        -2.1526   -7.4494   -3.7530 H         1 <0>         0.0589
     37 H12        -3.8589   -6.9992   -3.5201 H         1 <0>         0.0750
     38 H13        -2.6331   -5.7358   -3.7837 H         1 <0>         0.0781
     39 H14        -4.0469   -8.1059   -1.5469 H         1 <0>         0.0940
     40 H15        -3.5021   -5.9731    0.5676 H         1 <0>         0.0890
     41 H16        -4.8650   -5.9754   -0.5772 H         1 <0>         0.0604
     42 H17        -5.5532   -6.8771    1.6278 H         1 <0>         0.0653
     43 H18        -5.6537   -8.1287    0.3662 H         1 <0>         0.0609
     44 H19        -3.3367   -7.7494    2.3167 H         1 <0>         0.0652
     45 H20        -4.5819   -9.0173    2.4181 H         1 <0>         0.0627
     46 H21        -2.5185   -9.8799    1.3470 H         1 <0>         0.0655
     47 H22        -3.8815   -9.8823    0.2022 H         1 <0>         0.0613
     48 H23        -1.8303   -8.9782   -0.8580 H         1 <0>         0.0607
     49 H24        -1.7299   -7.7266    0.4036 H         1 <0>         0.0877
     50 H25        -1.7324   -0.4052   -1.6817 H         1 <0>         0.0718
     51 H26        -3.1746   -0.5722   -0.6519 H         1 <0>         0.0676
     52 H27        -2.2250    0.9329   -0.6162 H         1 <0>         0.0335
     53 H28        -1.2633   -0.7813    2.4584 H         1 <0>         0.0957
     54 H29        -2.1574    0.6039    1.7875 H         1 <0>         0.0591
     55 H30        -5.1031   -2.3684    1.9379 H         1 <0>         0.2151
@<TRIPOS>BOND
     1    1    2 1
     2    1   26 1
     3    1   27 1
     4    1   28 1
     5    2    3 1
     6    2   21 1
     7    2   29 1
     8    3    4 1
     9    3   30 1
    10    3   31 1
    11    4    9 ar
    12    4    5 ar
    13    5    6 ar
    14    5   32 1
    15    6    7 ar
    16    6   33 1
    17    7    8 ar
    18    7   34 1
    19    8    9 ar
    20    8   10 1
    21    9   35 1
    22   10   11 1
    23   11   12 2
    24   11   13 am
    25   13   14 1
    26   13   15 1
    27   14   36 1
    28   14   37 1
    29   14   38 1
    30   15   20 1
    31   15   16 1
    32   15   39 1
    33   16   17 1
    34   16   40 1
    35   16   41 1
    36   17   18 1
    37   17   42 1
    38   17   43 1
    39   18   19 1
    40   18   44 1
    41   18   45 1
    42   19   20 1
    43   19   46 1
    44   19   47 1
    45   20   48 1
    46   20   49 1
    47   21   22 1
    48   21   23 1
    49   22   50 1
    50   22   51 1
    51   22   52 1
    52   23   24 1
    53   23   53 1
    54   23   54 1
    55   24   25 3
    56   25   55 1
@<TRIPOS>MOLECULE
CHEMBL151125__1
   56    57     0     0     0
SMALL
USER_CHARGES

@<TRIPOS>ATOM
      1 C1          0.0653   -0.2303    1.5530 C.3       1 <0>        -0.1853
      2 C2         -0.7294   -0.0904    0.2531 C.3       1 <0>         0.0263
      3 C3          0.1441   -0.5194   -0.9274 C.3       1 <0>        -0.0975
      4 C4          0.4420   -1.9929   -0.8225 C.ar      1 <0>        -0.0897
      5 C5          1.6211   -2.4196   -0.2393 C.ar      1 <0>        -0.1052
      6 C6          1.8973   -3.7706   -0.1416 C.ar      1 <0>        -0.0953
      7 C7          0.9955   -4.6981   -0.6270 C.ar      1 <0>        -0.1042
      8 C8         -0.1878   -4.2727   -1.2123 C.ar      1 <0>         0.1181
      9 C9         -0.4654   -2.9164   -1.3037 C.ar      1 <0>        -0.1115
     10 O1         -1.0764   -5.1833   -1.6910 O.3       1 <0>        -0.3095
     11 C10        -1.8200   -5.8690   -0.8019 C.2       1 <0>         0.6483
     12 O2         -1.6917   -5.6585    0.3880 O.2       1 <0>        -0.5484
     13 N1         -2.7063   -6.7888   -1.2318 N.am      1 <0>        -0.5890
     14 C11        -2.8610   -7.0426   -2.6663 C.3       1 <0>         0.0764
     15 C12        -3.5152   -7.5348   -0.2645 C.3       1 <0>         0.1657
     16 C13        -4.3632   -6.5577    0.5523 C.3       1 <0>        -0.1366
     17 C14        -5.2079   -7.3368    1.5625 C.3       1 <0>        -0.1153
     18 C15        -4.2875   -8.1205    2.5002 C.3       1 <0>        -0.1225
     19 C16        -3.4395   -9.0976    1.6833 C.3       1 <0>        -0.1157
     20 C17        -2.5947   -8.3185    0.6732 C.3       1 <0>        -0.1392
     21 N2         -1.1375    1.3098    0.0770 N.4       1 <0>        -0.3847
     22 C18        -1.8730    1.7589    1.2666 C.3       1 <0>        -0.0527
     23 C19        -2.0024    1.4228   -1.1050 C.3       1 <0>         0.1232
     24 C20        -2.3164    2.8399   -1.3496 C.1       1 <0>        -0.2945
     25 C21        -2.5669    3.9702   -1.5447 C.1       1 <0>        -0.0579
     26 H1          0.3680   -1.2692    1.6838 H         1 <0>         0.1102
     27 H2          0.9511    0.4033    1.5073 H         1 <0>         0.0833
     28 H3         -0.5571    0.0754    2.3941 H         1 <0>         0.0855
     29 H4         -1.6152   -0.7239    0.2988 H         1 <0>         0.1411
     30 H5         -0.3831   -0.3208   -1.8605 H         1 <0>         0.0971
     31 H6          1.0782    0.0422   -0.9112 H         1 <0>         0.1022
     32 H7          2.3275   -1.6961    0.1401 H         1 <0>         0.1324
     33 H8          2.8188   -4.1014    0.3143 H         1 <0>         0.1386
     34 H9          1.2120   -5.7535   -0.5511 H         1 <0>         0.1339
     35 H10        -1.3881   -2.5828   -1.7551 H         1 <0>         0.1311
     36 H11        -2.1720   -7.8298   -2.9724 H         1 <0>         0.0635
     37 H12        -3.8847   -7.3557   -2.8716 H         1 <0>         0.0796
     38 H13        -2.6414   -6.1312   -3.2223 H         1 <0>         0.0780
     39 H14        -4.1686   -8.2275   -0.7949 H         1 <0>         0.0989
     40 H15        -3.7097   -5.8650    1.0827 H         1 <0>         0.0848
     41 H16        -5.0189   -5.9994   -0.1158 H         1 <0>         0.0603
     42 H17        -5.8120   -6.6407    2.1444 H         1 <0>         0.0664
     43 H18        -5.8614   -8.0295    1.0321 H         1 <0>         0.0640
     44 H19        -3.6340   -7.4278    3.0306 H         1 <0>         0.0638
     45 H20        -4.8893   -8.6755    3.2198 H         1 <0>         0.0657
     46 H21        -2.7837   -9.6559    2.3514 H         1 <0>         0.0682
     47 H22        -4.0929   -9.7903    1.1530 H         1 <0>         0.0640
     48 H23        -1.9906   -9.0146    0.0913 H         1 <0>         0.0629
     49 H24        -1.9413   -7.6258    1.2036 H         1 <0>         0.0860
     50 H25        -2.1757    2.7978    1.1359 H         1 <0>         0.1228
     51 H26        -2.7577    1.1370    1.4030 H         1 <0>         0.1240
     52 H27        -1.2312    1.6751    2.1437 H         1 <0>         0.1298
     53 H28        -1.4878    1.0097   -1.9726 H         1 <0>         0.1489
     54 H29        -2.9262    0.8703   -0.9334 H         1 <0>         0.1471
     55 H30        -2.7909    4.9811   -1.7191 H         1 <0>         0.2365
     56 H31        -0.3185    1.8855   -0.0493 H         1 <0>         0.4257
@<TRIPOS>BOND
     1    1    2 1
     2    1   26 1
     3    1   27 1
     4    1   28 1
     5    2    3 1
     6    2   21 1
     7    2   29 1
     8    3    4 1
     9    3   30 1
    10    3   31 1
    11    4    9 ar
    12    4    5 ar
    13    5    6 ar
    14    5   32 1
    15    6    7 ar
    16    6   33 1
    17    7    8 ar
    18    7   34 1
    19    8    9 ar
    20    8   10 1
    21    9   35 1
    22   10   11 1
    23   11   12 2
    24   11   13 am
    25   13   14 1
    26   13   15 1
    27   14   36 1
    28   14   37 1
    29   14   38 1
    30   15   20 1
    31   15   16 1
    32   15   39 1
    33   16   17 1
    34   16   40 1
    35   16   41 1
    36   17   18 1
    37   17   42 1
    38   17   43 1
    39   18   19 1
    40   18   44 1
    41   18   45 1
    42   19   20 1
    43   19   46 1
    44   19   47 1
    45   20   48 1
    46   20   49 1
    47   21   22 1
    48   21   23 1
    49   21   56 1
    50   22   50 1
    51   22   51 1
    52   22   52 1
    53   23   24 1
    54   23   53 1
    55   23   54 1
    56   24   25 3
    57   25   55 1
@<TRIPOS>MOLECULE
CHEMBL151125__2
   55    56     0     0     0
SMALL
USER_CHARGES

@<TRIPOS>ATOM
      1 C1          0.8866   -0.9048    1.0425 C.3       1 <0>        -0.1505
      2 C2          0.1954   -0.3579   -0.2081 C.3       1 <0>         0.0887
      3 C3         -1.2808   -0.7599   -0.1920 C.3       1 <0>        -0.0780
      4 C4         -1.3935   -2.2609   -0.2645 C.ar      1 <0>        -0.0624
      5 C5         -1.3354   -2.8996   -1.4897 C.ar      1 <0>        -0.1145
      6 C6         -1.4385   -4.2764   -1.5596 C.ar      1 <0>        -0.1007
      7 C7         -1.6004   -5.0177   -0.4048 C.ar      1 <0>        -0.1201
      8 C8         -1.6590   -4.3794    0.8252 C.ar      1 <0>         0.1091
      9 C9         -1.5491   -2.9980    0.8932 C.ar      1 <0>        -0.1126
     10 O1         -1.8186   -5.1065    1.9626 O.3       1 <0>        -0.3081
     11 C10        -2.9910   -5.0063    2.6178 C.2       1 <0>         0.6472
     12 O2         -3.9034   -4.3645    2.1359 O.2       1 <0>        -0.5450
     13 N1         -3.1523   -5.6178    3.8080 N.am      1 <0>        -0.5936
     14 C11        -2.0523   -6.3915    4.3890 C.3       1 <0>         0.0792
     15 C12        -4.4275   -5.5087    4.5207 C.3       1 <0>         0.1685
     16 C13        -5.5476   -6.0868    3.6533 C.3       1 <0>        -0.1403
     17 C14        -6.8794   -5.9729    4.3977 C.3       1 <0>        -0.1137
     18 C15        -7.1730   -4.5012    4.6955 C.3       1 <0>        -0.1228
     19 C16        -6.0530   -3.9231    5.5628 C.3       1 <0>        -0.1137
     20 C17        -4.7211   -4.0370    4.8185 C.3       1 <0>        -0.1399
     21 N2          0.3038    1.1069   -0.2266 N.3       1 <0>        -0.5354
     22 C18        -0.5120    1.6817   -1.3046 C.3       1 <0>         0.0177
     23 C19         1.7058    1.5296   -0.3448 C.3       1 <0>         0.1585
     24 C20         1.8012    2.9812   -0.1203 C.1       1 <0>        -0.1838
     25 C21         1.8773    4.1390    0.0587 C.1       1 <0>        -0.1929
     26 H1          1.9383   -0.6184    1.0310 H         1 <0>         0.0572
     27 H2          0.4079   -0.4938    1.9313 H         1 <0>         0.0656
     28 H3          0.8061   -1.9917    1.0562 H         1 <0>         0.0650
     29 H4          0.6741   -0.7689   -1.0969 H         1 <0>         0.0475
     30 H5         -1.7439   -0.4048    0.7287 H         1 <0>         0.0837
     31 H6         -1.7877   -0.3156   -1.0485 H         1 <0>         0.0808
     32 H7         -1.2097   -2.3219   -2.3934 H         1 <0>         0.1263
     33 H8         -1.3929   -4.7730   -2.5175 H         1 <0>         0.1324
     34 H9         -1.6816   -6.0933   -0.4600 H         1 <0>         0.1302
     35 H10        -1.5900   -2.4991    1.8502 H         1 <0>         0.1263
     36 H11        -1.4395   -5.7403    5.0123 H         1 <0>         0.0601
     37 H12        -2.4582   -7.1999    4.9971 H         1 <0>         0.0762
     38 H13        -1.4406   -6.8101    3.5897 H         1 <0>         0.0786
     39 H14        -4.3693   -6.0642    5.4567 H         1 <0>         0.0955
     40 H15        -5.6058   -5.5313    2.7173 H         1 <0>         0.0878
     41 H16        -5.3384   -7.1353    3.4411 H         1 <0>         0.0614
     42 H17        -7.6774   -6.3847    3.7798 H         1 <0>         0.0660
     43 H18        -6.8212   -6.5284    5.3337 H         1 <0>         0.0616
     44 H19        -7.2312   -3.9456    3.7595 H         1 <0>         0.0652
     45 H20        -8.1219   -4.4200    5.2258 H         1 <0>         0.0633
     46 H21        -6.2621   -2.8746    5.7750 H         1 <0>         0.0662
     47 H22        -5.9948   -4.4786    6.4989 H         1 <0>         0.0617
     48 H23        -3.9232   -3.6252    5.4364 H         1 <0>         0.0614
     49 H24        -4.7793   -3.4815    3.8825 H         1 <0>         0.0876
     50 H25        -1.5675    1.5148   -1.0898 H         1 <0>         0.0753
     51 H26        -0.3201    2.7524   -1.3740 H         1 <0>         0.0697
     52 H27        -0.2536    1.2042   -2.2498 H         1 <0>         0.0294
     53 H28         2.3069    1.0066    0.3990 H         1 <0>         0.1014
     54 H29         2.0742    1.2912   -1.3426 H         1 <0>         0.0580
     55 H30         1.9454    5.1745    0.2189 H         1 <0>         0.2178
@<TRIPOS>BOND
     1    1    2 1
     2    1   26 1
     3    1   27 1
     4    1   28 1
     5    2    3 1
     6    2   21 1
     7    2   29 1
     8    3    4 1
     9    3   30 1
    10    3   31 1
    11    4    9 ar
    12    4    5 ar
    13    5    6 ar
    14    5   32 1
    15    6    7 ar
    16    6   33 1
    17    7    8 ar
    18    7   34 1
    19    8    9 ar
    20    8   10 1
    21    9   35 1
    22   10   11 1
    23   11   12 2
    24   11   13 am
    25   13   14 1
    26   13   15 1
    27   14   36 1
    28   14   37 1
    29   14   38 1
    30   15   20 1
    31   15   16 1
    32   15   39 1
    33   16   17 1
    34   16   40 1
    35   16   41 1
    36   17   18 1
    37   17   42 1
    38   17   43 1
    39   18   19 1
    40   18   44 1
    41   18   45 1
    42   19   20 1
    43   19   46 1
    44   19   47 1
    45   20   48 1
    46   20   49 1
    47   21   22 1
    48   21   23 1
    49   22   50 1
    50   22   51 1
    51   22   52 1
    52   23   24 1
    53   23   53 1
    54   23   54 1
    55   24   25 3
    56   25   55 1
@<TRIPOS>MOLECULE
CHEMBL151125__3
   56    57     0     0     0
SMALL
USER_CHARGES

@<TRIPOS>ATOM
      1 C1          0.8814   -0.9530    1.0488 C.3       1 <0>        -0.1877
      2 C2          0.1913   -0.3909   -0.1956 C.3       1 <0>         0.0277
      3 C3         -1.2816   -0.8049   -0.1928 C.3       1 <0>        -0.0969
      4 C4         -1.3818   -2.3057   -0.2862 C.ar      1 <0>        -0.0871
      5 C5         -1.3125   -2.9273   -1.5196 C.ar      1 <0>        -0.1104
      6 C6         -1.4041   -4.3038   -1.6086 C.ar      1 <0>        -0.0949
      7 C7         -1.5656   -5.0619   -0.4648 C.ar      1 <0>        -0.1041
      8 C8         -1.6353   -4.4409    0.7734 C.ar      1 <0>         0.1185
      9 C9         -1.5370   -3.0596    0.8606 C.ar      1 <0>        -0.1119
     10 O1         -1.7946   -5.1846    1.9000 O.3       1 <0>        -0.3092
     11 C10        -2.9702   -5.1012    2.5518 C.2       1 <0>         0.6480
     12 O2         -3.8848   -4.4586    2.0752 O.2       1 <0>        -0.5461
     13 N1         -3.1323   -5.7304    3.7326 N.am      1 <0>        -0.5890
     14 C11        -2.0296   -6.5052    4.3071 C.3       1 <0>         0.0766
     15 C12        -4.4111   -5.6397    4.4415 C.3       1 <0>         0.1657
     16 C13        -5.5238   -6.2127    3.5615 C.3       1 <0>        -0.1396
     17 C14        -6.8594   -6.1179    4.3019 C.3       1 <0>        -0.1155
     18 C15        -7.1637   -4.6525    4.6192 C.3       1 <0>        -0.1227
     19 C16        -6.0510   -4.0795    5.4992 C.3       1 <0>        -0.1151
     20 C17        -4.7154   -4.1742    4.7588 C.3       1 <0>        -0.1367
     21 N2          0.2880    1.0749   -0.1892 N.4       1 <0>        -0.3853
     22 C18        -0.4647    1.6202   -1.3268 C.3       1 <0>        -0.0542
     23 C19         1.6977    1.4731   -0.2987 C.3       1 <0>         0.1252
     24 C20         1.8057    2.9357   -0.1719 C.1       1 <0>        -0.2949
     25 C21         1.8918    4.1021   -0.0708 C.1       1 <0>        -0.0583
     26 H1          1.9308   -0.6581    1.0468 H         1 <0>         0.0840
     27 H2          0.3955   -0.5607    1.9422 H         1 <0>         0.0827
     28 H3          0.8097   -2.0406    1.0441 H         1 <0>         0.1099
     29 H4          0.6772   -0.7832   -1.0890 H         1 <0>         0.1431
     30 H5         -1.7525   -0.4661    0.7300 H         1 <0>         0.0974
     31 H6         -1.7877   -0.3532   -1.0460 H         1 <0>         0.1019
     32 H7         -1.1870   -2.3363   -2.4148 H         1 <0>         0.1301
     33 H8         -1.3497   -4.7869   -2.5730 H         1 <0>         0.1397
     34 H9         -1.6377   -6.1372   -0.5350 H         1 <0>         0.1381
     35 H10        -1.5866   -2.5741    1.8240 H         1 <0>         0.1285
     36 H11        -1.4236   -5.8588    4.9421 H         1 <0>         0.0614
     37 H12        -2.4327   -7.3246    4.9022 H         1 <0>         0.0802
     38 H13        -1.4120   -6.9085    3.5046 H         1 <0>         0.0792
     39 H14        -4.3530   -6.2080    5.3698 H         1 <0>         0.0990
     40 H15        -5.5819   -5.6444    2.6332 H         1 <0>         0.0862
     41 H16        -5.3070   -7.2567    3.3355 H         1 <0>         0.0630
     42 H17        -7.6521   -6.5262    3.6750 H         1 <0>         0.0683
     43 H18        -6.8013   -6.6862    5.2303 H         1 <0>         0.0638
     44 H19        -7.2218   -4.0842    3.6909 H         1 <0>         0.0640
     45 H20        -8.1152   -4.5850    5.1467 H         1 <0>         0.0657
     46 H21        -6.2678   -3.0354    5.7253 H         1 <0>         0.0664
     47 H22        -5.9929   -4.6477    6.4275 H         1 <0>         0.0640
     48 H23        -3.9227   -3.7660    5.3857 H         1 <0>         0.0602
     49 H24        -4.7735   -3.6059    3.8305 H         1 <0>         0.0847
     50 H25        -0.2918    2.6942   -1.3956 H         1 <0>         0.1236
     51 H26        -0.1323    1.1390   -2.2466 H         1 <0>         0.1255
     52 H27        -1.5286    1.4320   -1.1823 H         1 <0>         0.1280
     53 H28         2.2727    0.9962    0.4950 H         1 <0>         0.1495
     54 H29         2.0888    1.1626   -1.2676 H         1 <0>         0.1475
     55 H30         1.9688    5.1454    0.0197 H         1 <0>         0.2364
     56 H31        -0.0970    1.4336    0.6717 H         1 <0>         0.4258
@<TRIPOS>BOND
     1    1    2 1
     2    1   26 1
     3    1   27 1
     4    1   28 1
     5    2    3 1
     6    2   21 1
     7    2   29 1
     8    3    4 1
     9    3   30 1
    10    3   31 1
    11    4    9 ar
    12    4    5 ar
    13    5    6 ar
    14    5   32 1
    15    6    7 ar
    16    6   33 1
    17    7    8 ar
    18    7   34 1
    19    8    9 ar
    20    8   10 1
    21    9   35 1
    22   10   11 1
    23   11   12 2
    24   11   13 am
    25   13   14 1
    26   13   15 1
    27   14   36 1
    28   14   37 1
    29   14   38 1
    30   15   20 1
    31   15   16 1
    32   15   39 1
    33   16   17 1
    34   16   40 1
    35   16   41 1
    36   17   18 1
    37   17   42 1
    38   17   43 1
    39   18   19 1
    40   18   44 1
    41   18   45 1
    42   19   20 1
    43   19   46 1
    44   19   47 1
    45   20   48 1
    46   20   49 1
    47   21   22 1
    48   21   23 1
    49   21   56 1
    50   22   50 1
    51   22   51 1
    52   22   52 1
    53   23   24 1
    54   23   53 1
    55   23   54 1
    56   24   25 3
    57   25   55 1
@<TRIPOS>MOLECULE
CHEMBL450239
   30    32     0     0     0
SMALL
USER_CHARGES

@<TRIPOS>ATOM
      1 C1         -0.0167    1.3798    0.0096 C.ar      1 <0>        -0.1120
      2 C2          1.1681    2.0951    0.0022 C.ar      1 <0>        -0.1206
      3 C3          2.3774    1.4328   -0.0134 C.ar      1 <0>        -0.1013
      4 C4          2.4047    0.0348   -0.0212 C.ar      1 <0>        -0.0703
      5 C5          1.2035   -0.6808   -0.0131 C.ar      1 <0>        -0.1074
      6 C6          0.0021   -0.0041    0.0020 C.ar      1 <0>        -0.1204
      7 C7          3.6918   -0.6802   -0.0383 C.2       1 <0>        -0.0730
      8 C8          3.7141   -2.0262   -0.0458 C.2       1 <0>        -0.1311
      9 C9          4.9988   -2.7398   -0.0629 C.ar      1 <0>         0.0298
     10 C10         6.1989   -2.0157   -0.0655 C.ar      1 <0>        -0.1543
     11 C11         7.3940   -2.6735   -0.0809 C.ar      1 <0>         0.0019
     12 C12         7.4234   -4.0716   -0.0941 C.ar      1 <0>        -0.2458
     13 C13         6.2265   -4.8128   -0.0916 C.ar      1 <0>         0.1979
     14 C14         5.0181   -4.1394   -0.0706 C.ar      1 <0>        -0.1442
     15 N1          6.5214   -6.1746   -0.1065 N.am      1 <0>        -0.6519
     16 C15         7.8485   -6.3875   -0.1188 C.2       1 <0>         0.4944
     17 O1          8.4008   -7.4677   -0.1335 O.2       1 <0>        -0.4458
     18 C16         8.5222   -5.0494   -0.1117 C.2       1 <0>         0.3887
     19 O2          9.7151   -4.8217   -0.1195 O.2       1 <0>        -0.3695
     20 H1         -0.9607    1.9042    0.0260 H         1 <0>         0.1241
     21 H2          1.1454    3.1749    0.0082 H         1 <0>         0.1258
     22 H3          3.3012    1.9923   -0.0200 H         1 <0>         0.1266
     23 H4          1.2165   -1.7607   -0.0194 H         1 <0>         0.1262
     24 H5         -0.9266   -0.5554    0.0083 H         1 <0>         0.1253
     25 H6          4.6180   -0.1247   -0.0449 H         1 <0>         0.1288
     26 H7          2.7879   -2.5816   -0.0392 H         1 <0>         0.1302
     27 H8          6.1774   -0.9359   -0.0558 H         1 <0>         0.1404
     28 H9          8.3179   -2.1142   -0.0833 H         1 <0>         0.1410
     29 H10         4.0907   -4.6928   -0.0640 H         1 <0>         0.1400
     30 H11         5.8543   -6.8788   -0.1073 H         1 <0>         0.4263
@<TRIPOS>BOND
     1    1    6 ar
     2    1    2 ar
     3    1   20 1
     4    2    3 ar
     5    2   21 1
     6    3    4 ar
     7    3   22 1
     8    4    5 ar
     9    4    7 1
    10    5    6 ar
    11    5   23 1
    12    6   24 1
    13    7    8 2
    14    7   25 1
    15    8    9 1
    16    8   26 1
    17    9   14 ar
    18    9   10 ar
    19   10   11 ar
    20   10   27 1
    21   11   12 ar
    22   11   28 1
    23   12   18 1
    24   12   13 ar
    25   13   14 ar
    26   13   15 1
    27   14   29 1
    28   15   16 am
    29   15   30 1
    30   16   17 2
    31   16   18 1
    32   18   19 2
@<TRIPOS>MOLECULE
CHEMBL145330
   34    36     0     0     0
SMALL
USER_CHARGES

@<TRIPOS>ATOM
      1 C1         -0.0167    1.3791    0.0096 C.ar      1 <0>        -0.1148
      2 C2          1.1686    2.0922    0.0021 C.ar      1 <0>        -0.1183
      3 C3          2.3774    1.4264   -0.0129 C.ar      1 <0>        -0.1067
      4 C4          2.4024    0.0329   -0.0206 C.ar      1 <0>        -0.0538
      5 C5          1.2050   -0.6804   -0.0130 C.ar      1 <0>        -0.1071
      6 C6          0.0021   -0.0041    0.0020 C.ar      1 <0>        -0.1186
      7 C7          3.6983   -0.6883   -0.0373 C.ar      1 <0>        -0.0222
      8 C8          4.8948    0.0278   -0.0395 C.ar      1 <0>        -0.1136
      9 C9          6.0984   -0.6422   -0.0545 C.ar      1 <0>        -0.0712
     10 C10         6.1203   -2.0361   -0.0675 C.ar      1 <0>        -0.0190
     11 C11         4.9241   -2.7522   -0.0658 C.ar      1 <0>        -0.0748
     12 C12         3.7204   -2.0825   -0.0449 C.ar      1 <0>        -0.1148
     13 C13         7.4169   -2.7576   -0.0837 C.2       1 <0>         0.2167
     14 N1          8.6395   -2.2076   -0.0818 N.2       1 <0>        -0.2689
     15 N2          9.4940   -3.1736   -0.0993 N.2       1 <0>        -0.0505
     16 N3          8.8589   -4.2933   -0.1120 N.pl3     1 <0>        -0.1422
     17 N4          7.5908   -4.0645   -0.0970 N.2       1 <0>        -0.2967
     18 C14         9.4804   -5.6198   -0.1334 C.3       1 <0>         0.1348
     19 C15         9.7030   -6.1020    1.3014 C.3       1 <0>        -0.0383
     20 C16        10.3275   -7.4348    1.2798 C.1       1 <0>         0.2029
     21 N5         10.8094   -8.4633    1.2632 N.1       1 <0>        -0.4034
     22 H1         -0.9603    1.9042    0.0260 H         1 <0>         0.1239
     23 H2          1.1480    3.1720    0.0077 H         1 <0>         0.1257
     24 H3          3.3022    1.9841   -0.0191 H         1 <0>         0.1273
     25 H4          1.2185   -1.7603   -0.0189 H         1 <0>         0.1267
     26 H5         -0.9264   -0.5557    0.0079 H         1 <0>         0.1254
     27 H6          4.8779    1.1076   -0.0298 H         1 <0>         0.1345
     28 H7          7.0252   -0.0876   -0.0566 H         1 <0>         0.1390
     29 H8          4.9412   -3.8320   -0.0762 H         1 <0>         0.1356
     30 H9          2.7938   -2.6373   -0.0391 H         1 <0>         0.1335
     31 H10         8.8264   -6.3190   -0.6544 H         1 <0>         0.1286
     32 H11        10.4382   -5.5639   -0.6507 H         1 <0>         0.1310
     33 H12        10.3570   -5.4027    1.8224 H         1 <0>         0.1248
     34 H13         8.7452   -6.1578    1.8187 H         1 <0>         0.1243
@<TRIPOS>BOND
     1    1    6 ar
     2    1    2 ar
     3    1   22 1
     4    2    3 ar
     5    2   23 1
     6    3    4 ar
     7    3   24 1
     8    4    5 ar
     9    4    7 1
    10    5    6 ar
    11    5   25 1
    12    6   26 1
    13    7   12 ar
    14    7    8 ar
    15    8    9 ar
    16    8   27 1
    17    9   10 ar
    18    9   28 1
    19   10   11 ar
    20   10   13 1
    21   11   12 ar
    22   11   29 1
    23   12   30 1
    24   13   17 2
    25   13   14 1
    26   14   15 2
    27   15   16 1
    28   16   17 1
    29   16   18 1
    30   18   19 1
    31   18   31 1
    32   18   32 1
    33   19   20 1
    34   19   33 1
    35   19   34 1
    36   20   21 3
@<TRIPOS>MOLECULE
CHEMBL8145
   29    31     0     0     0
SMALL
USER_CHARGES

@<TRIPOS>ATOM
      1 C1         -0.0168    1.3896    0.0097 C.ar      1 <0>        -0.0902
      2 C2          1.1691    2.0940    0.0021 C.ar      1 <0>        -0.1446
      3 C3          2.3804    1.4164   -0.0135 C.ar      1 <0>         0.1115
      4 C4          2.4025    0.0286   -0.0216 C.ar      1 <0>        -0.1436
      5 C5          1.2201   -0.6816   -0.0137 C.ar      1 <0>        -0.0710
      6 C6          0.0021   -0.0041    0.0020 C.ar      1 <0>        -0.0389
      7 C7         -1.2714   -0.7647    0.0106 C.2       1 <0>        -0.2424
      8 C8         -2.1312   -0.6984   -1.0395 C.2       1 <0>         0.1320
      9 O1         -3.2792   -1.3783   -1.0768 O.3       1 <0>        -0.2161
     10 C9         -3.8134   -1.9293    0.0301 C.ar      1 <0>         0.1584
     11 C10        -5.1368   -2.3510    0.0428 C.ar      1 <0>        -0.1704
     12 C11        -5.6660   -2.9233    1.1868 C.ar      1 <0>         0.1737
     13 C12        -4.8838   -3.0822    2.3291 C.ar      1 <0>        -0.1705
     14 C13        -3.5815   -2.6701    2.3350 C.ar      1 <0>        -0.0140
     15 C14        -3.0361   -2.0875    1.1913 C.ar      1 <0>        -0.2284
     16 C15        -1.6365   -1.6187    1.1568 C.2       1 <0>         0.4311
     17 O2         -0.8326   -1.9150    2.0240 O.2       1 <0>        -0.4478
     18 O3         -6.9599   -3.3335    1.1962 O.3       1 <0>        -0.4913
     19 O4          3.5472    2.1133   -0.0214 O.3       1 <0>        -0.4998
     20 H1         -0.9590    1.9174    0.0260 H         1 <0>         0.1287
     21 H2          1.1551    3.1739    0.0081 H         1 <0>         0.1325
     22 H3          3.3466   -0.4958   -0.0346 H         1 <0>         0.1325
     23 H4          1.2380   -1.7614   -0.0204 H         1 <0>         0.1281
     24 H5         -1.8752   -0.0690   -1.8790 H         1 <0>         0.2014
     25 H6         -5.7514   -2.2323   -0.8373 H         1 <0>         0.1516
     26 H7         -5.3090   -3.5334    3.2135 H         1 <0>         0.1442
     27 H8         -2.9771   -2.7942    3.2214 H         1 <0>         0.1474
     28 H9         -7.0838   -4.2506    0.9156 H         1 <0>         0.4028
     29 H10         3.8936    2.3103    0.8597 H         1 <0>         0.3933
@<TRIPOS>BOND
     1    1    6 ar
     2    1    2 ar
     3    1   20 1
     4    2    3 ar
     5    2   21 1
     6    3    4 ar
     7    3   19 1
     8    4    5 ar
     9    4   22 1
    10    5    6 ar
    11    5   23 1
    12    6    7 1
    13    7   16 1
    14    7    8 2
    15    8    9 1
    16    8   24 1
    17    9   10 1
    18   10   15 ar
    19   10   11 ar
    20   11   12 ar
    21   11   25 1
    22   12   13 ar
    23   12   18 1
    24   13   14 ar
    25   13   26 1
    26   14   15 ar
    27   14   27 1
    28   15   16 1
    29   16   17 2
    30   18   28 1
    31   19   29 1
@<TRIPOS>MOLECULE
CHEMBL294811
   40    42     0     0     0
SMALL
USER_CHARGES

@<TRIPOS>ATOM
      1 C1         -0.0184    1.5028    0.0103 C.3       1 <0>        -0.1171
      2 C2          0.0021   -0.0041    0.0020 C.ar      1 <0>        -0.0793
      3 C3          0.0057   -0.6887   -1.1989 C.ar      1 <0>        -0.1180
      4 C4          0.0245   -2.0709   -1.2065 C.ar      1 <0>        -0.0947
      5 C5          0.0400   -2.7685   -0.0132 C.ar      1 <0>        -0.0977
      6 C6          0.0373   -2.0839    1.1877 C.ar      1 <0>        -0.0972
      7 C7          0.0229   -0.7016    1.1953 C.ar      1 <0>        -0.1186
      8 C8          0.0595   -4.2753   -0.0215 C.3       1 <0>         0.1493
      9 C9         -1.3290   -4.8378    0.3420 C.3       1 <0>        -0.1259
     10 C10        -1.0826   -5.6257    1.6088 C.2       1 <0>         0.1428
     11 N1          0.1636   -5.5505    1.9268 N.2       1 <0>        -0.2364
     12 N2          0.9304   -4.7879    1.0482 N.am      1 <0>        -0.4643
     13 C11         2.2536   -4.5576    1.1596 C.2       1 <0>         0.5503
     14 O1          2.8224   -3.8758    0.3330 O.2       1 <0>        -0.5164
     15 C12         3.0267   -5.1472    2.3111 C.3       1 <0>        -0.1667
     16 C13        -2.1102   -6.3652    2.3641 C.ar      1 <0>        -0.0460
     17 C14        -3.4342   -6.3787    1.9174 C.ar      1 <0>        -0.0702
     18 C15        -4.3914   -7.0713    2.6266 C.ar      1 <0>        -0.1471
     19 C16        -4.0418   -7.7554    3.7838 C.ar      1 <0>         0.1260
     20 C17        -2.7271   -7.7444    4.2318 C.ar      1 <0>        -0.1482
     21 C18        -1.7620   -7.0597    3.5257 C.ar      1 <0>        -0.0620
     22 O2         -4.9887   -8.4368    4.4798 O.3       1 <0>        -0.4987
     23 H1          1.0042    1.8801    0.0026 H         1 <0>         0.0721
     24 H2         -0.5455    1.8639   -0.8728 H         1 <0>         0.0679
     25 H3         -0.5286    1.8543    0.9071 H         1 <0>         0.0671
     26 H4         -0.0064   -0.1436   -2.1312 H         1 <0>         0.1250
     27 H5          0.0266   -2.6057   -2.1448 H         1 <0>         0.1235
     28 H6          0.0491   -2.6289    2.1200 H         1 <0>         0.1140
     29 H7          0.0245   -0.1667    2.1335 H         1 <0>         0.1224
     30 H8          0.3847   -4.6482   -0.9927 H         1 <0>         0.1020
     31 H9         -2.0335   -4.0269    0.5271 H         1 <0>         0.1089
     32 H10        -1.6960   -5.4913   -0.4494 H         1 <0>         0.1093
     33 H11         2.3524   -5.7242    2.9439 H         1 <0>         0.0906
     34 H12         3.8108   -5.7993    1.9263 H         1 <0>         0.0967
     35 H13         3.4761   -4.3446    2.8959 H         1 <0>         0.0962
     36 H14        -3.7070   -5.8468    1.0179 H         1 <0>         0.1344
     37 H15        -5.4150   -7.0819    2.2824 H         1 <0>         0.1363
     38 H16        -2.4599   -8.2771    5.1325 H         1 <0>         0.1357
     39 H17        -0.7390   -7.0560    3.8719 H         1 <0>         0.1382
     40 H18        -5.0941   -9.3573    4.2029 H         1 <0>         0.3958
@<TRIPOS>BOND
     1    1    2 1
     2    1   23 1
     3    1   24 1
     4    1   25 1
     5    2    7 ar
     6    2    3 ar
     7    3    4 ar
     8    3   26 1
     9    4    5 ar
    10    4   27 1
    11    5    6 ar
    12    5    8 1
    13    6    7 ar
    14    6   28 1
    15    7   29 1
    16    8   12 1
    17    8    9 1
    18    8   30 1
    19    9   10 1
    20    9   31 1
    21    9   32 1
    22   10   11 2
    23   10   16 1
    24   11   12 1
    25   12   13 am
    26   13   14 2
    27   13   15 1
    28   15   33 1
    29   15   34 1
    30   15   35 1
    31   16   21 ar
    32   16   17 ar
    33   17   18 ar
    34   17   36 1
    35   18   19 ar
    36   18   37 1
    37   19   20 ar
    38   19   22 1
    39   20   21 ar
    40   20   38 1
    41   21   39 1
    42   22   40 1
@<TRIPOS>MOLECULE
CHEMBL294811__1
   40    42     0     0     0
SMALL
USER_CHARGES

@<TRIPOS>ATOM
      1 C1         -0.0184    1.5028    0.0103 C.3       1 <0>        -0.1170
      2 C2          0.0021   -0.0041    0.0020 C.ar      1 <0>        -0.0794
      3 C3          0.0057   -0.6887   -1.1989 C.ar      1 <0>        -0.1179
      4 C4          0.0245   -2.0709   -1.2065 C.ar      1 <0>        -0.0946
      5 C5          0.0400   -2.7685   -0.0132 C.ar      1 <0>        -0.0974
      6 C6          0.0373   -2.0839    1.1877 C.ar      1 <0>        -0.0972
      7 C7          0.0229   -0.7016    1.1953 C.ar      1 <0>        -0.1188
      8 C8          0.0595   -4.2753   -0.0215 C.3       1 <0>         0.1491
      9 C9          1.4659   -4.8016    0.3267 C.3       1 <0>        -0.1258
     10 C10         1.2538   -5.5954    1.5960 C.2       1 <0>         0.1427
     11 N1          0.0097   -5.5525    1.9277 N.2       1 <0>        -0.2364
     12 N2         -0.7861   -4.8101    1.0576 N.am      1 <0>        -0.4644
     13 C11        -2.1136   -4.6141    1.1836 C.2       1 <0>         0.5503
     14 O1         -2.7088   -3.9473    0.3633 O.2       1 <0>        -0.5164
     15 C12        -2.8585   -5.2233    2.3433 C.3       1 <0>        -0.1667
     16 C13         2.3081   -6.3093    2.3391 C.ar      1 <0>        -0.0460
     17 C14         3.6288   -6.2804    1.8833 C.ar      1 <0>        -0.0702
     18 C15         4.6110   -6.9492    2.5811 C.ar      1 <0>        -0.1471
     19 C16         4.2900   -7.6513    3.7358 C.ar      1 <0>         0.1259
     20 C17         2.9785   -7.6832    4.1922 C.ar      1 <0>        -0.1482
     21 C18         1.9908   -7.0122    3.5044 C.ar      1 <0>        -0.0620
     22 O2          5.2615   -8.3092    4.4204 O.3       1 <0>        -0.4987
     23 H1          1.0042    1.8801    0.0026 H         1 <0>         0.0721
     24 H2         -0.5455    1.8639   -0.8728 H         1 <0>         0.0679
     25 H3         -0.5286    1.8543    0.9071 H         1 <0>         0.0669
     26 H4         -0.0064   -0.1436   -2.1312 H         1 <0>         0.1250
     27 H5          0.0266   -2.6057   -2.1448 H         1 <0>         0.1236
     28 H6          0.0491   -2.6289    2.1200 H         1 <0>         0.1140
     29 H7          0.0245   -0.1667    2.1335 H         1 <0>         0.1223
     30 H8         -0.2667   -4.6567   -0.9891 H         1 <0>         0.1020
     31 H9          1.8410   -5.4455   -0.4688 H         1 <0>         0.1094
     32 H10         2.1512   -3.9728    0.5042 H         1 <0>         0.1088
     33 H11        -2.1626   -5.7825    2.9687 H         1 <0>         0.0906
     34 H12        -3.3221   -4.4325    2.9331 H         1 <0>         0.0962
     35 H13        -3.6297   -5.8955    1.9671 H         1 <0>         0.0968
     36 H14         3.8793   -5.7350    0.9854 H         1 <0>         0.1344
     37 H15         5.6319   -6.9277    2.2294 H         1 <0>         0.1363
     38 H16         2.7333   -8.2310    5.0901 H         1 <0>         0.1357
     39 H17         0.9723   -7.0333    3.8629 H         1 <0>         0.1381
     40 H18         5.6934   -7.7751    5.1011 H         1 <0>         0.3958
@<TRIPOS>BOND
     1    1    2 1
     2    1   23 1
     3    1   24 1
     4    1   25 1
     5    2    7 ar
     6    2    3 ar
     7    3    4 ar
     8    3   26 1
     9    4    5 ar
    10    4   27 1
    11    5    6 ar
    12    5    8 1
    13    6    7 ar
    14    6   28 1
    15    7   29 1
    16    8   12 1
    17    8    9 1
    18    8   30 1
    19    9   10 1
    20    9   31 1
    21    9   32 1
    22   10   11 2
    23   10   16 1
    24   11   12 1
    25   12   13 am
    26   13   14 2
    27   13   15 1
    28   15   33 1
    29   15   34 1
    30   15   35 1
    31   16   21 ar
    32   16   17 ar
    33   17   18 ar
    34   17   36 1
    35   18   19 ar
    36   18   37 1
    37   19   20 ar
    38   19   22 1
    39   20   21 ar
    40   20   38 1
    41   21   39 1
    42   22   40 1
@<TRIPOS>MOLECULE
CHEMBL404505
   25    27     0     0     0
SMALL
USER_CHARGES

@<TRIPOS>ATOM
      1 C1         -0.0165    1.3621    0.0095 C.ar      1 <0>        -0.1271
      2 C2          1.1708    2.0817    0.0021 C.ar      1 <0>        -0.0509
      3 C3          2.3869    1.4339   -0.0135 C.ar      1 <0>        -0.1154
      4 C4          2.4308    0.0444   -0.0214 C.ar      1 <0>         0.0966
      5 C5          1.2245   -0.6798   -0.0133 C.ar      1 <0>        -0.1594
      6 C6          0.0021   -0.0041    0.0020 C.ar      1 <0>        -0.0464
      7 C7          1.6095   -2.0910   -0.0252 C.2       1 <0>        -0.0550
      8 C8          2.9664   -2.1104   -0.0390 C.2       1 <0>        -0.0509
      9 O1          3.4406   -0.8473   -0.0367 O.3       1 <0>        -0.1756
     10 C9          3.7956   -3.3261   -0.0543 C.cat     1 <0>         0.6037
     11 N1          3.4054   -4.4675    0.4958 N.pl3     1 <0>        -0.6279
     12 C10         4.4562   -5.4800    0.3082 C.3       1 <0>         0.0644
     13 C11         5.5545   -4.7211   -0.4633 C.3       1 <0>         0.0589
     14 N2          4.9919   -3.3713   -0.6242 N.pl3     1 <0>        -0.6267
     15 H1         -0.9609    1.8856    0.0259 H         1 <0>         0.1453
     16 H2          1.1408    3.1613    0.0082 H         1 <0>         0.1512
     17 H3          3.3039    2.0044   -0.0199 H         1 <0>         0.1456
     18 H4         -0.9244   -0.5591    0.0075 H         1 <0>         0.1418
     19 H5          0.9479   -2.9446   -0.0230 H         1 <0>         0.1798
     20 H6          4.8325   -5.8255    1.2710 H         1 <0>         0.1316
     21 H7          4.0817   -6.3169   -0.2813 H         1 <0>         0.1309
     22 H8          6.4775   -4.6888    0.1156 H         1 <0>         0.1306
     23 H9          5.7268   -5.1803   -1.4368 H         1 <0>         0.1310
     24 H10         5.4281   -2.6309   -1.0741 H         1 <0>         0.4630
     25 H11         2.5609   -4.6121    0.9504 H         1 <0>         0.4610
@<TRIPOS>BOND
     1    1    6 ar
     2    1    2 ar
     3    1   15 1
     4    2    3 ar
     5    2   16 1
     6    3    4 ar
     7    3   17 1
     8    4    9 1
     9    4    5 ar
    10    5    6 ar
    11    5    7 1
    12    6   18 1
    13    7    8 2
    14    7   19 1
    15    8    9 1
    16    8   10 1
    17   10   14 1
    18   10   11 2
    19   11   12 1
    20   11   25 1
    21   12   13 1
    22   12   20 1
    23   12   21 1
    24   13   14 1
    25   13   22 1
    26   13   23 1
    27   14   24 1
@<TRIPOS>MOLECULE
CHEMBL174289
   30    31     0     0     0
SMALL
USER_CHARGES

@<TRIPOS>ATOM
      1 C1          0.0699   -3.3052    1.5377 C.3       1 <0>         0.0658
      2 N1          0.0436   -2.1180    0.6797 N.pl3     1 <0>        -0.4103
      3 C2          0.1227   -2.1185   -0.6733 C.2       1 <0>         0.0186
      4 C3          0.0657   -0.8397   -1.1160 C.2       1 <0>        -0.2075
      5 C4         -0.0536   -0.0045   -0.0008 C.2       1 <0>        -0.1384
      6 C5         -0.0716   -0.8166    1.1133 C.2       1 <0>        -0.0589
      7 C6         -0.1886   -0.3742    2.5068 C.2       1 <0>         0.5919
      8 O1         -0.1012   -1.1834    3.4115 O.2       1 <0>        -0.5472
      9 N2         -0.3928    0.9286    2.7854 N.am      1 <0>        -0.7171
     10 C7         -0.3982    1.3882    4.1764 C.3       1 <0>         0.1645
     11 C8         -0.6456    2.8742    4.2135 C.ar      1 <0>        -0.0831
     12 C9          0.4202    3.7537    4.1640 C.ar      1 <0>        -0.1100
     13 C10         0.1947    5.1170    4.1980 C.ar      1 <0>        -0.0902
     14 C11        -1.0966    5.6026    4.2820 C.ar      1 <0>        -0.1444
     15 C12        -2.1645    4.7230    4.3316 C.ar      1 <0>         0.0985
     16 C13        -1.9378    3.3575    4.2914 C.ar      1 <0>        -0.1347
     17 F1         -3.4271    5.1965    4.4142 F         1 <0>        -0.1367
     18 H1         -0.9510   -3.6108    1.7665 H         1 <0>         0.0767
     19 H2          0.5846   -4.1154    1.0211 H         1 <0>         0.0851
     20 H3          0.5958   -3.0727    2.4637 H         1 <0>         0.1007
     21 H4          0.2159   -2.9955   -1.2967 H         1 <0>         0.1707
     22 H5          0.1053   -0.5215   -2.1473 H         1 <0>         0.1444
     23 H6         -0.1223    1.0732   -0.0105 H         1 <0>         0.1431
     24 H7         -0.5363    1.5619    2.0648 H         1 <0>         0.4055
     25 H8         -1.1872    0.8746    4.7257 H         1 <0>         0.0825
     26 H9          0.5659    1.1688    4.6352 H         1 <0>         0.0835
     27 H10         1.4296    3.3752    4.0991 H         1 <0>         0.1333
     28 H11         1.0280    5.8030    4.1592 H         1 <0>         0.1372
     29 H12        -1.2725    6.6679    4.3092 H         1 <0>         0.1383
     30 H13        -2.7703    2.6704    4.3256 H         1 <0>         0.1382
@<TRIPOS>BOND
     1    1    2 1
     2    1   18 1
     3    1   19 1
     4    1   20 1
     5    2    6 1
     6    2    3 1
     7    3    4 2
     8    3   21 1
     9    4    5 1
    10    4   22 1
    11    5    6 2
    12    5   23 1
    13    6    7 1
    14    7    8 2
    15    7    9 am
    16    9   10 1
    17    9   24 1
    18   10   11 1
    19   10   25 1
    20   10   26 1
    21   11   16 ar
    22   11   12 ar
    23   12   13 ar
    24   12   27 1
    25   13   14 ar
    26   13   28 1
    27   14   15 ar
    28   14   29 1
    29   15   16 ar
    30   15   17 1
    31   16   30 1
@<TRIPOS>MOLECULE
CHEMBL462097
   41    43     0     0     0
SMALL
USER_CHARGES

@<TRIPOS>ATOM
      1 C1         -0.0178    1.4648    0.0101 C.3       1 <0>        -0.0587
      2 N1          0.0021   -0.0041    0.0020 N.4       1 <0>        -0.3868
      3 C2          0.7126   -0.4907    1.1921 C.3       1 <0>        -0.0071
      4 C3         -0.0711   -0.1034    2.4478 C.3       1 <0>        -0.0994
      5 C4          0.6578   -0.6026    3.6687 C.ar      1 <0>        -0.1089
      6 C5          0.3905   -1.8647    4.1653 C.ar      1 <0>        -0.1098
      7 C6          1.0591   -2.3227    5.2853 C.ar      1 <0>        -0.1136
      8 C7          1.9952   -1.5187    5.9083 C.ar      1 <0>        -0.1039
      9 C8          2.2631   -0.2569    5.4111 C.ar      1 <0>        -0.1141
     10 C9          1.5977    0.1993    4.2887 C.ar      1 <0>        -0.1105
     11 C10         0.6897   -0.4778   -1.2066 C.3       1 <0>         0.0693
     12 C11        -0.1056   -0.0832   -2.4243 C.2       1 <0>        -0.0130
     13 C12        -1.0040   -0.8644   -3.0445 C.2       1 <0>        -0.1234
     14 C13        -1.5368   -0.0937   -4.1705 C.ar      1 <0>        -0.1245
     15 C14        -2.4807   -0.3555   -5.1655 C.ar      1 <0>        -0.0607
     16 C15        -2.7642    0.6002   -6.0998 C.ar      1 <0>        -0.1367
     17 C16        -2.1212    1.8302   -6.0680 C.ar      1 <0>        -0.0725
     18 C17        -1.1867    2.1095   -5.0952 C.ar      1 <0>        -0.1367
     19 C18        -0.8825    1.1510   -4.1338 C.ar      1 <0>         0.1183
     20 N2         -0.0234    1.1267   -3.0581 N.pl3     1 <0>        -0.5924
     21 H1          0.5554    1.8577   -2.7905 H         1 <0>         0.4164
     22 H2          1.0047    1.8421    0.0024 H         1 <0>         0.1229
     23 H3         -0.5450    1.8259   -0.8730 H         1 <0>         0.1193
     24 H4         -0.5280    1.8163    0.9069 H         1 <0>         0.1293
     25 H5          0.8051   -1.5756    1.1418 H         1 <0>         0.1351
     26 H6          1.7055   -0.0428    1.2310 H         1 <0>         0.1321
     27 H7         -0.1636    0.9815    2.4982 H         1 <0>         0.0946
     28 H8         -1.0641   -0.5514    2.4090 H         1 <0>         0.0958
     29 H9         -0.3409   -2.4929    3.6786 H         1 <0>         0.1247
     30 H10         0.8498   -3.3084    5.6737 H         1 <0>         0.1298
     31 H11         2.5171   -1.8762    6.7837 H         1 <0>         0.1299
     32 H12         2.9943    0.3713    5.8981 H         1 <0>         0.1293
     33 H13         1.8096    1.1836    3.8981 H         1 <0>         0.1231
     34 H14         1.6817   -0.0294   -1.2596 H         1 <0>         0.1371
     35 H15         0.7830   -1.5632   -1.1697 H         1 <0>         0.1537
     36 H16        -1.2813   -1.8704   -2.7661 H         1 <0>         0.1579
     37 H17        -2.9847   -1.3103   -5.1967 H         1 <0>         0.1303
     38 H18        -3.4941    0.3970   -6.8695 H         1 <0>         0.1329
     39 H19        -2.3557    2.5754   -6.8136 H         1 <0>         0.1355
     40 H20        -0.6917    3.0692   -5.0791 H         1 <0>         0.1270
     41 H21        -0.9445   -0.3533    0.0092 H         1 <0>         0.4283
@<TRIPOS>BOND
     1    1    2 1
     2    1   22 1
     3    1   23 1
     4    1   24 1
     5    2    3 1
     6    2   11 1
     7    2   41 1
     8    3    4 1
     9    3   25 1
    10    3   26 1
    11    4    5 1
    12    4   27 1
    13    4   28 1
    14    5   10 ar
    15    5    6 ar
    16    6    7 ar
    17    6   29 1
    18    7    8 ar
    19    7   30 1
    20    8    9 ar
    21    8   31 1
    22    9   10 ar
    23    9   32 1
    24   10   33 1
    25   11   12 1
    26   11   34 1
    27   11   35 1
    28   12   20 1
    29   12   13 2
    30   13   14 1
    31   13   36 1
    32   14   19 ar
    33   14   15 ar
    34   15   16 ar
    35   15   37 1
    36   16   17 ar
    37   16   38 1
    38   17   18 ar
    39   17   39 1
    40   18   19 ar
    41   18   40 1
    42   19   20 1
    43   20   21 1
@<TRIPOS>MOLECULE
CHEMBL1213915
   39    41     0     0     0
SMALL
USER_CHARGES

@<TRIPOS>ATOM
      1 C1         -0.0184    1.5028    0.0103 C.3       1 <0>        -0.1609
      2 C2          0.0021   -0.0041    0.0020 C.2       1 <0>         0.1522
      3 N1          0.0216   -0.6592    1.1228 N.2       1 <0>        -0.2352
      4 N2          0.0237    0.0347    2.3399 N.pl3     1 <0>        -0.5194
      5 C3          0.0445   -0.6640    3.5352 C.2       1 <0>         0.3901
      6 N3          0.0446   -0.2028    4.7732 N.2       1 <0>        -0.5575
      7 C4          0.0659   -1.0241    5.8123 C.2       1 <0>         0.1338
      8 C5          0.0882   -2.3743    5.6000 C.2       1 <0>        -0.2302
      9 S1          0.0706   -2.4295    3.8129 S.3       1 <0>         0.0446
     10 C6          0.0659   -0.4836    7.1935 C.ar      1 <0>         0.0140
     11 C7          0.0947   -1.3519    8.2841 C.ar      1 <0>        -0.1399
     12 C8          0.0952   -0.8464    9.5684 C.ar      1 <0>        -0.0798
     13 C9          0.0667    0.5200    9.7776 C.ar      1 <0>        -0.2032
     14 C10         0.0374    1.3912    8.6975 C.ar      1 <0>         0.1236
     15 C11         0.0430    0.8929    7.4049 C.ar      1 <0>        -0.1184
     16 O1          0.0090    2.7336    8.9079 O.3       1 <0>        -0.3172
     17 C12         0.0111    3.1775   10.2662 C.3       1 <0>         0.0268
     18 C13        -0.0001   -0.7344   -1.2789 C.ar      1 <0>        -0.1016
     19 C14         0.0129   -2.1355   -1.3006 C.ar      1 <0>        -0.0365
     20 C15         0.0103   -2.7719   -2.5287 C.ar      1 <0>        -0.1735
     21 C16        -0.0050   -2.0126   -3.6853 C.ar      1 <0>         0.1149
     22 N4         -0.0171   -0.6945   -3.6353 N.ar      1 <0>        -0.4829
     23 C17        -0.0210   -0.0417   -2.4916 C.ar      1 <0>         0.1310
     24 H1          1.0042    1.8801    0.0026 H         1 <0>         0.0950
     25 H2         -0.5455    1.8639   -0.8728 H         1 <0>         0.0952
     26 H3         -0.5286    1.8543    0.9071 H         1 <0>         0.0746
     27 H4          0.0105    1.0046    2.3452 H         1 <0>         0.4080
     28 H5          0.1072   -3.1840    6.3144 H         1 <0>         0.2003
     29 H6          0.1163   -2.4197    8.1240 H         1 <0>         0.1281
     30 H7          0.1175   -1.5201   10.4122 H         1 <0>         0.1298
     31 H8          0.0668    0.9106   10.7845 H         1 <0>         0.1292
     32 H9          0.0247    1.5697    6.5635 H         1 <0>         0.1395
     33 H10        -0.0133    4.2669   10.2925 H         1 <0>         0.1008
     34 H11        -0.8657    2.7820   10.7791 H         1 <0>         0.0559
     35 H12         0.9137    2.8221   10.7633 H         1 <0>         0.0560
     36 H13         0.0251   -2.7036   -0.3822 H         1 <0>         0.1452
     37 H14         0.0204   -3.8504   -2.5842 H         1 <0>         0.1426
     38 H15        -0.0068   -2.5075   -4.6453 H         1 <0>         0.1616
     39 H16        -0.0358    1.0382   -2.4914 H         1 <0>         0.1636
@<TRIPOS>BOND
     1    1    2 1
     2    1   24 1
     3    1   25 1
     4    1   26 1
     5    2    3 2
     6    2   18 1
     7    3    4 1
     8    4    5 1
     9    4   27 1
    10    5    9 1
    11    5    6 2
    12    6    7 1
    13    7    8 2
    14    7   10 1
    15    8    9 1
    16    8   28 1
    17   10   15 ar
    18   10   11 ar
    19   11   12 ar
    20   11   29 1
    21   12   13 ar
    22   12   30 1
    23   13   14 ar
    24   13   31 1
    25   14   15 ar
    26   14   16 1
    27   15   32 1
    28   16   17 1
    29   17   33 1
    30   17   34 1
    31   17   35 1
    32   18   23 ar
    33   18   19 ar
    34   19   20 ar
    35   19   36 1
    36   20   21 ar
    37   20   37 1
    38   21   22 ar
    39   21   38 1
    40   22   23 ar
    41   23   39 1
@<TRIPOS>MOLECULE
CHEMBL434261
   38    40     0     0     0
SMALL
USER_CHARGES

@<TRIPOS>ATOM
      1 C1         -0.0167    1.3781    0.0096 C.ar      1 <0>        -0.1080
      2 C2          1.1709    2.0855    0.0021 C.ar      1 <0>        -0.1231
      3 C3          2.3773    1.4107   -0.0130 C.ar      1 <0>        -0.0947
      4 C4          2.3960    0.0285   -0.0201 C.ar      1 <0>        -0.1002
      5 C5          1.2084   -0.6789   -0.0117 C.ar      1 <0>        -0.0947
      6 C6          0.0021   -0.0041    0.0020 C.ar      1 <0>        -0.1231
      7 C7          3.7112   -0.7071   -0.0376 C.3       1 <0>         0.1000
      8 O1          4.1410   -0.9464    1.3041 O.3       1 <0>        -0.3048
      9 C8          5.3183   -1.6048    1.4665 C.ar      1 <0>         0.1527
     10 C9          6.0466   -2.0065    0.3549 C.ar      1 <0>        -0.2128
     11 C10         7.2419   -2.6750    0.5168 C.ar      1 <0>        -0.0324
     12 C11         7.7186   -2.9471    1.7976 C.ar      1 <0>        -0.0596
     13 C12         6.9856   -2.5427    2.9115 C.ar      1 <0>        -0.0377
     14 C13         5.7937   -1.8696    2.7437 C.ar      1 <0>        -0.1544
     15 C14         9.0046   -3.6669    1.9750 C.2       1 <0>         0.2240
     16 N1          9.8153   -4.1091    1.0033 N.2       1 <0>        -0.2727
     17 N2         10.8229   -4.6771    1.5742 N.2       1 <0>        -0.0513
     18 N3         10.6739   -4.6071    2.8510 N.pl3     1 <0>        -0.1430
     19 N4          9.5745   -3.9905    3.1188 N.2       1 <0>        -0.3004
     20 C15        11.6104   -5.1397    3.8438 C.3       1 <0>         0.1352
     21 C16        12.6387   -4.0652    4.2028 C.3       1 <0>        -0.0383
     22 C17        13.5796   -4.6003    5.2004 C.1       1 <0>         0.2031
     23 N5         14.3057   -5.0133    5.9702 N.1       1 <0>        -0.4040
     24 H1         -0.9591    1.9053    0.0259 H         1 <0>         0.1251
     25 H2          1.1563    3.1654    0.0076 H         1 <0>         0.1261
     26 H3          3.3051    1.9634   -0.0196 H         1 <0>         0.1248
     27 H4          1.2231   -1.7588   -0.0176 H         1 <0>         0.1247
     28 H5         -0.9258   -0.5567    0.0082 H         1 <0>         0.1261
     29 H6          3.5884   -1.6586   -0.5549 H         1 <0>         0.0750
     30 H7          4.4573   -0.1052   -0.5563 H         1 <0>         0.0751
     31 H8          5.6764   -1.7957   -0.6375 H         1 <0>         0.1365
     32 H9          7.8079   -2.9877   -0.3483 H         1 <0>         0.1395
     33 H10         7.3526   -2.7526    3.9053 H         1 <0>         0.1404
     34 H11         5.2273   -1.5520    3.6067 H         1 <0>         0.1392
     35 H12        11.0626   -5.4322    4.7396 H         1 <0>         0.1283
     36 H13        12.1222   -6.0089    3.4308 H         1 <0>         0.1304
     37 H14        13.1864   -3.7727    3.3070 H         1 <0>         0.1246
     38 H15        12.1268   -3.1960    4.6158 H         1 <0>         0.1243
@<TRIPOS>BOND
     1    1    6 ar
     2    1    2 ar
     3    1   24 1
     4    2    3 ar
     5    2   25 1
     6    3    4 ar
     7    3   26 1
     8    4    5 ar
     9    4    7 1
    10    5    6 ar
    11    5   27 1
    12    6   28 1
    13    7    8 1
    14    7   29 1
    15    7   30 1
    16    8    9 1
    17    9   14 ar
    18    9   10 ar
    19   10   11 ar
    20   10   31 1
    21   11   12 ar
    22   11   32 1
    23   12   13 ar
    24   12   15 1
    25   13   14 ar
    26   13   33 1
    27   14   34 1
    28   15   19 2
    29   15   16 1
    30   16   17 2
    31   17   18 1
    32   18   19 1
    33   18   20 1
    34   20   21 1
    35   20   35 1
    36   20   36 1
    37   21   22 1
    38   21   37 1
    39   21   38 1
    40   22   23 3
@<TRIPOS>MOLECULE
CHEMBL348961
   36    38     0     0     0
SMALL
USER_CHARGES

@<TRIPOS>ATOM
      1 C1         -0.0184    1.5028    0.0103 C.3       1 <0>        -0.1034
      2 C2          0.0021   -0.0041    0.0020 C.ar      1 <0>         0.0744
      3 C3          0.0058   -0.6942   -1.2072 C.ar      1 <0>        -0.0434
      4 C4          0.0254   -2.0834   -1.1545 C.ar      1 <0>        -0.1679
      5 C5          0.0402   -2.7044    0.1064 C.ar      1 <0>         0.1253
      6 N1          0.0350   -1.9514    1.1967 N.ar      1 <0>        -0.2140
      7 N2          0.0219   -0.6696    1.1393 N.ar      1 <0>        -0.2171
      8 C6          0.0588   -4.1766   -0.0957 C.ar      1 <0>         0.0254
      9 C7          0.0771   -5.2314    0.8022 C.ar      1 <0>        -0.1079
     10 C8          0.0919   -6.5443    0.3347 C.ar      1 <0>         0.1712
     11 C9          0.0884   -6.8020   -1.0288 C.ar      1 <0>        -0.2085
     12 C10         0.0707   -5.7571   -1.9334 C.ar      1 <0>         0.0038
     13 C11         0.0554   -4.4421   -1.4773 C.ar      1 <0>        -0.2047
     14 C12         0.0344   -3.1441   -2.1887 C.2       1 <0>         0.4594
     15 O1          0.0255   -2.9800   -3.3917 O.2       1 <0>        -0.4056
     16 O2          0.1102   -7.5751    1.2167 O.3       1 <0>        -0.3013
     17 C13         0.1246   -8.8957    0.6709 C.3       1 <0>         0.0594
     18 C14         0.1442   -9.9177    1.8093 C.3       1 <0>        -0.1275
     19 C15         0.1597  -11.3317    1.2250 C.3       1 <0>        -0.1648
     20 C16         0.1793  -12.3538    2.3634 C.3       1 <0>         0.4549
     21 F1         -0.9610  -12.1896    3.1571 F         1 <0>        -0.1815
     22 F2          0.1934  -13.6466    1.8291 F         1 <0>        -0.1820
     23 F3          1.3233  -12.1596    3.1448 F         1 <0>        -0.1814
     24 H1          1.0042    1.8801    0.0026 H         1 <0>         0.0913
     25 H2         -0.5455    1.8639   -0.8728 H         1 <0>         0.0858
     26 H3         -0.5286    1.8543    0.9071 H         1 <0>         0.0897
     27 H4         -0.0064   -0.1697   -2.1512 H         1 <0>         0.1648
     28 H5          0.0803   -5.0363    1.8645 H         1 <0>         0.1515
     29 H6          0.0999   -7.8218   -1.3841 H         1 <0>         0.1457
     30 H7          0.0687   -5.9609   -2.9940 H         1 <0>         0.1447
     31 H8         -0.7667   -9.0470    0.0621 H         1 <0>         0.0742
     32 H9          1.0131   -9.0236    0.0525 H         1 <0>         0.0742
     33 H10         1.0356   -9.7664    2.4182 H         1 <0>         0.0925
     34 H11        -0.7442   -9.7899    2.4277 H         1 <0>         0.0925
     35 H12        -0.7317  -11.4830    0.6162 H         1 <0>         0.1152
     36 H13         1.0481  -11.4596    0.6066 H         1 <0>         0.1152
@<TRIPOS>BOND
     1    1    2 1
     2    1   24 1
     3    1   25 1
     4    1   26 1
     5    2    7 ar
     6    2    3 ar
     7    3    4 ar
     8    3   27 1
     9    4   14 1
    10    4    5 ar
    11    5    6 ar
    12    5    8 1
    13    6    7 ar
    14    8   13 ar
    15    8    9 ar
    16    9   10 ar
    17    9   28 1
    18   10   11 ar
    19   10   16 1
    20   11   12 ar
    21   11   29 1
    22   12   13 ar
    23   12   30 1
    24   13   14 1
    25   14   15 2
    26   16   17 1
    27   17   18 1
    28   17   31 1
    29   17   32 1
    30   18   19 1
    31   18   33 1
    32   18   34 1
    33   19   20 1
    34   19   35 1
    35   19   36 1
    36   20   21 1
    37   20   22 1
    38   20   23 1
@<TRIPOS>MOLECULE
CHEMBL275970
   26    27     0     0     0
SMALL
USER_CHARGES

@<TRIPOS>ATOM
      1 C1         -0.0167    1.3797    0.0096 C.ar      1 <0>        -0.0752
      2 C2          1.1681    2.0950    0.0022 C.ar      1 <0>        -0.1238
      3 C3          2.3774    1.4326   -0.0129 C.ar      1 <0>        -0.0728
      4 C4          2.4046    0.0348   -0.0206 C.ar      1 <0>        -0.1218
      5 C5          1.2035   -0.6808   -0.0130 C.ar      1 <0>        -0.0800
      6 C6          0.0021   -0.0041    0.0020 C.ar      1 <0>        -0.1243
      7 C7          3.6918   -0.6802   -0.0372 C.2       1 <0>         0.0606
      8 C8          3.7141   -2.0268   -0.0446 C.2       1 <0>        -0.2352
      9 C9          4.9959   -2.7389   -0.0611 C.cat     1 <0>         0.5572
     10 N1          6.1660   -2.1124   -0.0637 N.pl3     1 <0>        -0.6515
     11 C10         7.2486   -3.1083   -0.0815 C.3       1 <0>         0.0623
     12 C11         6.4999   -4.4561   -0.0891 C.3       1 <0>         0.0612
     13 N2          5.0823   -4.0632   -0.0690 N.pl3     1 <0>        -0.6408
     14 H1         -0.9607    1.9041    0.0260 H         1 <0>         0.1356
     15 H2          1.1454    3.1748    0.0078 H         1 <0>         0.1367
     16 H3          3.3012    1.9921   -0.0191 H         1 <0>         0.1337
     17 H4          1.2166   -1.7607   -0.0192 H         1 <0>         0.1306
     18 H5         -0.9266   -0.5554    0.0082 H         1 <0>         0.1358
     19 H6          4.6180   -0.1248   -0.0434 H         1 <0>         0.1331
     20 H7          2.7879   -2.5822   -0.0384 H         1 <0>         0.1694
     21 H8          7.8540   -3.0007   -0.9815 H         1 <0>         0.1237
     22 H9          7.8674   -3.0182    0.8113 H         1 <0>         0.1238
     23 H10         6.7327   -5.0192   -0.9928 H         1 <0>         0.1244
     24 H11         6.7460   -5.0367    0.8000 H         1 <0>         0.1239
     25 H12         4.3298   -4.6752   -0.0648 H         1 <0>         0.4589
     26 H13         6.2880   -1.1502   -0.0555 H         1 <0>         0.4543
@<TRIPOS>BOND
     1    1    6 ar
     2    1    2 ar
     3    1   14 1
     4    2    3 ar
     5    2   15 1
     6    3    4 ar
     7    3   16 1
     8    4    5 ar
     9    4    7 1
    10    5    6 ar
    11    5   17 1
    12    6   18 1
    13    7    8 2
    14    7   19 1
    15    8    9 1
    16    8   20 1
    17    9   13 1
    18    9   10 2
    19   10   11 1
    20   10   26 1
    21   11   12 1
    22   11   21 1
    23   11   22 1
    24   12   13 1
    25   12   23 1
    26   12   24 1
    27   13   25 1
@<TRIPOS>MOLECULE
CHEMBL14640
   26    27     0     0     0
SMALL
USER_CHARGES

@<TRIPOS>ATOM
      1 C1         -0.0167    1.3784    0.0096 C.ar      1 <0>        -0.1366
      2 C2          1.1698    2.0883    0.0021 C.ar      1 <0>        -0.0755
      3 C3          2.3773    1.4175   -0.0134 C.ar      1 <0>        -0.1364
      4 C4          2.3989    0.0304   -0.0210 C.ar      1 <0>         0.1094
      5 C5          1.2070   -0.6796   -0.0130 C.ar      1 <0>        -0.2028
      6 C6          0.0021   -0.0041    0.0020 C.ar      1 <0>        -0.0771
      7 O1          3.5855   -0.6319   -0.0368 O.3       1 <0>        -0.3196
      8 C7          3.5315   -2.0598   -0.0438 C.3       1 <0>         0.0718
      9 C8          4.9322   -2.6155   -0.0612 C.cat     1 <0>         0.5159
     10 N1          5.9953   -1.8460   -0.0625 N.pl3     1 <0>        -0.6139
     11 C9          7.2033   -2.6865   -0.0805 C.3       1 <0>         0.0532
     12 C10         6.6344   -4.1205   -0.0898 C.3       1 <0>         0.0610
     13 N2          5.1787   -3.9044   -0.0706 N.pl3     1 <0>        -0.6311
     14 H1         -0.9596    1.9047    0.0260 H         1 <0>         0.1337
     15 H2          1.1525    3.1682    0.0080 H         1 <0>         0.1392
     16 H3          3.3038    1.9724   -0.0200 H         1 <0>         0.1355
     17 H4          1.2211   -1.7595   -0.0193 H         1 <0>         0.1282
     18 H5         -0.9260   -0.5563    0.0082 H         1 <0>         0.1338
     19 H6          3.0134   -2.4083    0.8497 H         1 <0>         0.1323
     20 H7          2.9951   -2.3988   -0.9302 H         1 <0>         0.1322
     21 H8          7.7891   -2.4990   -0.9804 H         1 <0>         0.1301
     22 H9          7.8038   -2.5165    0.8131 H         1 <0>         0.1301
     23 H10         6.9364   -4.6485   -0.9943 H         1 <0>         0.1299
     24 H11         6.9511   -4.6659    0.7992 H         1 <0>         0.1295
     25 H12         4.5072   -4.6044   -0.0673 H         1 <0>         0.4616
     26 H13         5.9863   -0.8761   -0.0535 H         1 <0>         0.4657
@<TRIPOS>BOND
     1    1    6 ar
     2    1    2 ar
     3    1   14 1
     4    2    3 ar
     5    2   15 1
     6    3    4 ar
     7    3   16 1
     8    4    5 ar
     9    4    7 1
    10    5    6 ar
    11    5   17 1
    12    6   18 1
    13    7    8 1
    14    8    9 1
    15    8   19 1
    16    8   20 1
    17    9   13 1
    18    9   10 2
    19   10   11 1
    20   10   26 1
    21   11   12 1
    22   11   21 1
    23   11   22 1
    24   12   13 1
    25   12   23 1
    26   12   24 1
    27   13   25 1
@<TRIPOS>MOLECULE
CHEMBL607571
   31    33     0     0     0
SMALL
USER_CHARGES

@<TRIPOS>ATOM
      1 C1         -0.0173    1.4248    0.0099 C.3       1 <0>         0.0220
      2 O1          0.0021   -0.0041    0.0020 O.3       1 <0>        -0.3085
      3 C2          0.6052   -0.6065   -1.0547 C.ar      1 <0>         0.1661
      4 C3          1.1723    0.1657   -2.0614 C.ar      1 <0>        -0.2159
      5 C4          1.7847   -0.4412   -3.1353 C.ar      1 <0>        -0.0269
      6 C5          1.8358   -1.8361   -3.2116 C.ar      1 <0>        -0.1259
      7 C6          1.2644   -2.6089   -2.1965 C.ar      1 <0>        -0.0295
      8 C7          0.6586   -1.9935   -1.1236 C.ar      1 <0>        -0.1543
      9 C8          2.4901   -2.4905   -4.3599 C.2       1 <0>         0.2475
     10 C9          2.5190   -3.8498   -4.4089 C.2       1 <0>        -0.2464
     11 C10         3.1414   -4.4946   -5.5022 C.2       1 <0>         0.1788
     12 S1          3.2036   -6.2020   -5.6102 S.2       1 <0>        -0.5003
     13 C11         3.7353   -3.6375   -6.5475 C.ar      1 <0>        -0.1535
     14 C12         4.3684   -4.1865   -7.6608 C.ar      1 <0>        -0.0291
     15 C13         4.9101   -3.3526   -8.6153 C.ar      1 <0>        -0.1396
     16 C14         4.8267   -1.9760   -8.4695 C.ar      1 <0>        -0.0487
     17 C15         4.2024   -1.4213   -7.3719 C.ar      1 <0>        -0.1378
     18 C16         3.6498   -2.2446   -6.3992 C.ar      1 <0>         0.1426
     19 O2          3.0297   -1.7216   -5.3200 O.3       1 <0>        -0.2077
     20 H1          1.0053    1.8021    0.0021 H         1 <0>         0.0610
     21 H2         -0.5445    1.7859   -0.8732 H         1 <0>         0.0610
     22 H3         -0.5275    1.7763    0.9067 H         1 <0>         0.1065
     23 H4          1.1324    1.2433   -2.0016 H         1 <0>         0.1404
     24 H5          2.2246    0.1596   -3.9176 H         1 <0>         0.1399
     25 H6          1.3013   -3.6868   -2.2516 H         1 <0>         0.1466
     26 H7          0.2205   -2.5897   -0.3368 H         1 <0>         0.1463
     27 H8          2.0700   -4.4322   -3.6179 H         1 <0>         0.1714
     28 H9          4.4345   -5.2585   -7.7749 H         1 <0>         0.1578
     29 H10         5.4019   -3.7730   -9.4801 H         1 <0>         0.1424
     30 H11         5.2552   -1.3318   -9.2230 H         1 <0>         0.1462
     31 H12         4.1437   -0.3479   -7.2686 H         1 <0>         0.1478
@<TRIPOS>BOND
     1    1    2 1
     2    1   20 1
     3    1   21 1
     4    1   22 1
     5    2    3 1
     6    3    8 ar
     7    3    4 ar
     8    4    5 ar
     9    4   23 1
    10    5    6 ar
    11    5   24 1
    12    6    7 ar
    13    6    9 1
    14    7    8 ar
    15    7   25 1
    16    8   26 1
    17    9   19 1
    18    9   10 2
    19   10   11 1
    20   10   27 1
    21   11   12 2
    22   11   13 1
    23   13   18 ar
    24   13   14 ar
    25   14   15 ar
    26   14   28 1
    27   15   16 ar
    28   15   29 1
    29   16   17 ar
    30   16   30 1
    31   17   18 ar
    32   17   31 1
    33   18   19 1
@<TRIPOS>MOLECULE
CHEMBL462054
   38    40     0     0     0
SMALL
USER_CHARGES

@<TRIPOS>ATOM
      1 C1         -0.0178    1.4648    0.0101 C.3       1 <0>        -0.0580
      2 N1          0.0021   -0.0041    0.0020 N.4       1 <0>        -0.3851
      3 C2          0.6897   -0.4778   -1.2066 C.3       1 <0>         0.0440
      4 C3          2.1367   -0.0597   -1.1578 C.ar      1 <0>        -0.1627
      5 C4          2.5229    1.1569   -1.6885 C.ar      1 <0>        -0.0971
      6 C5          3.8502    1.5404   -1.6437 C.ar      1 <0>        -0.1143
      7 C6          4.7913    0.7075   -1.0679 C.ar      1 <0>        -0.0832
      8 C7          4.4049   -0.5088   -0.5364 C.ar      1 <0>        -0.1129
      9 C8          3.0769   -0.8904   -0.5773 C.ar      1 <0>        -0.0927
     10 C9         -1.3761   -0.5125    0.0124 C.3       1 <0>         0.0686
     11 C10        -2.0429   -0.1300    1.3086 C.2       1 <0>        -0.0120
     12 C11        -2.1113   -0.9094    2.3994 C.2       1 <0>        -0.1239
     13 C12        -2.8393   -0.1531    3.4211 C.ar      1 <0>        -0.1243
     14 C13        -3.2225   -0.4201    4.7370 C.ar      1 <0>        -0.0608
     15 C14        -3.9138    0.5211    5.4463 C.ar      1 <0>        -0.1369
     16 C15        -4.2384    1.7413    4.8691 C.ar      1 <0>        -0.0728
     17 C16        -3.8702    2.0254    3.5726 C.ar      1 <0>        -0.1366
     18 C17        -3.1657    1.0817    2.8317 C.ar      1 <0>         0.1183
     19 N2         -2.6631    1.0656    1.5500 N.pl3     1 <0>        -0.5922
     20 H1         -2.7390    1.7926    0.9125 H         1 <0>         0.4164
     21 H2          1.0047    1.8421    0.0024 H         1 <0>         0.1280
     22 H3         -0.5450    1.8259   -0.8730 H         1 <0>         0.1219
     23 H4         -0.5280    1.8163    0.9069 H         1 <0>         0.1184
     24 H5          0.6271   -1.5648   -1.2578 H         1 <0>         0.1395
     25 H6          0.2159   -0.0447   -2.0875 H         1 <0>         0.1363
     26 H7          1.7877    1.8076   -2.1383 H         1 <0>         0.1303
     27 H8          4.1521    2.4906   -2.0589 H         1 <0>         0.1361
     28 H9          5.8284    1.0068   -1.0336 H         1 <0>         0.1362
     29 H10         5.1402   -1.1596   -0.0869 H         1 <0>         0.1368
     30 H11         2.7745   -1.8389   -0.1588 H         1 <0>         0.1323
     31 H12        -1.9290   -0.0808   -0.8218 H         1 <0>         0.1377
     32 H13        -1.3635   -1.5983   -0.0831 H         1 <0>         0.1541
     33 H14        -1.7064   -1.9052    2.5039 H         1 <0>         0.1578
     34 H15        -2.9737   -1.3672    5.1924 H         1 <0>         0.1301
     35 H16        -4.2103    0.3140    6.4639 H         1 <0>         0.1327
     36 H17        -4.7855    2.4750    5.4424 H         1 <0>         0.1353
     37 H18        -4.1278    2.9774    3.1324 H         1 <0>         0.1269
     38 H19         0.4901   -0.3383    0.8195 H         1 <0>         0.4276
@<TRIPOS>BOND
     1    1    2 1
     2    1   21 1
     3    1   22 1
     4    1   23 1
     5    2    3 1
     6    2   10 1
     7    2   38 1
     8    3    4 1
     9    3   24 1
    10    3   25 1
    11    4    9 ar
    12    4    5 ar
    13    5    6 ar
    14    5   26 1
    15    6    7 ar
    16    6   27 1
    17    7    8 ar
    18    7   28 1
    19    8    9 ar
    20    8   29 1
    21    9   30 1
    22   10   11 1
    23   10   31 1
    24   10   32 1
    25   11   19 1
    26   11   12 2
    27   12   13 1
    28   12   33 1
    29   13   18 ar
    30   13   14 ar
    31   14   15 ar
    32   14   34 1
    33   15   16 ar
    34   15   35 1
    35   16   17 ar
    36   16   36 1
    37   17   18 ar
    38   17   37 1
    39   18   19 1
    40   19   20 1
@<TRIPOS>MOLECULE
CHEMBL462054__1
   37    39     0     0     0
SMALL
USER_CHARGES

@<TRIPOS>ATOM
      1 C1         -0.0178    1.4648    0.0101 C.3       1 <0>         0.0147
      2 N1          0.0021   -0.0041    0.0020 N.3       1 <0>        -0.5294
      3 C2          0.7062   -0.5275    1.1802 C.3       1 <0>         0.0934
      4 C3         -0.0734   -0.1864    2.4240 C.ar      1 <0>        -0.0808
      5 C4          0.1690    1.0019    3.0875 C.ar      1 <0>        -0.1146
      6 C5         -0.5461    1.3148    4.2284 C.ar      1 <0>        -0.1217
      7 C6         -1.5040    0.4397    4.7055 C.ar      1 <0>        -0.1185
      8 C7         -1.7471   -0.7481    4.0414 C.ar      1 <0>        -0.1205
      9 C8         -1.0349   -1.0590    2.8981 C.ar      1 <0>        -0.0966
     10 C9          0.5996   -0.5156   -1.2387 C.3       1 <0>         0.1149
     11 C10        -0.2863   -0.1627   -2.4056 C.2       1 <0>         0.0844
     12 C11        -1.2249   -0.9657   -2.9311 C.2       1 <0>        -0.1768
     13 C12        -1.8439   -0.2332   -4.0385 C.ar      1 <0>        -0.1094
     14 C13        -2.8584   -0.5294   -4.9511 C.ar      1 <0>        -0.0698
     15 C14        -3.2152    0.3946   -5.8920 C.ar      1 <0>        -0.1476
     16 C15        -2.5771    1.6263   -5.9483 C.ar      1 <0>        -0.0979
     17 C16        -1.5738    1.9393   -5.0578 C.ar      1 <0>        -0.1324
     18 C17        -1.1943    1.0133   -4.0913 C.ar      1 <0>         0.0994
     19 N2         -0.2571    1.0260   -3.0827 N.pl3     1 <0>        -0.5939
     20 H1          0.3367    1.7666   -2.8830 H         1 <0>         0.4108
     21 H2          1.0047    1.8421    0.0024 H         1 <0>         0.0260
     22 H3         -0.5450    1.8259   -0.8730 H         1 <0>         0.0674
     23 H4         -0.5280    1.8163    0.9069 H         1 <0>         0.0773
     24 H5          0.8004   -1.6101    1.0960 H         1 <0>         0.0875
     25 H6          1.6983   -0.0800    1.2392 H         1 <0>         0.0455
     26 H7          0.9174    1.6855    2.7148 H         1 <0>         0.1170
     27 H8         -0.3562    2.2428    4.7472 H         1 <0>         0.1212
     28 H9         -2.0622    0.6839    5.5972 H         1 <0>         0.1214
     29 H10        -2.4952   -1.4319    4.4143 H         1 <0>         0.1227
     30 H11        -1.2275   -1.9853    2.3772 H         1 <0>         0.1233
     31 H12         1.5829   -0.0671   -1.3803 H         1 <0>         0.0461
     32 H13         0.7003   -1.5990   -1.1736 H         1 <0>         0.1035
     33 H14        -1.4761   -1.9626   -2.6002 H         1 <0>         0.1465
     34 H15        -3.3589   -1.4857   -4.9135 H         1 <0>         0.1220
     35 H16        -3.9997    0.1650   -6.5979 H         1 <0>         0.1223
     36 H17        -2.8701    2.3463   -6.6981 H         1 <0>         0.1247
     37 H18        -1.0833    2.9000   -5.1100 H         1 <0>         0.1182
@<TRIPOS>BOND
     1    1    2 1
     2    1   21 1
     3    1   22 1
     4    1   23 1
     5    2    3 1
     6    2   10 1
     7    3    4 1
     8    3   24 1
     9    3   25 1
    10    4    9 ar
    11    4    5 ar
    12    5    6 ar
    13    5   26 1
    14    6    7 ar
    15    6   27 1
    16    7    8 ar
    17    7   28 1
    18    8    9 ar
    19    8   29 1
    20    9   30 1
    21   10   11 1
    22   10   31 1
    23   10   32 1
    24   11   19 1
    25   11   12 2
    26   12   13 1
    27   12   33 1
    28   13   18 ar
    29   13   14 ar
    30   14   15 ar
    31   14   34 1
    32   15   16 ar
    33   15   35 1
    34   16   17 ar
    35   16   36 1
    36   17   18 ar
    37   17   37 1
    38   18   19 1
    39   19   20 1
@<TRIPOS>MOLECULE
CHEMBL607864
   34    35     0     0     0
SMALL
USER_CHARGES

@<TRIPOS>ATOM
      1 C1         -0.0167    1.3789    0.0096 C.ar      1 <0>        -0.1660
      2 C2          1.1805    2.0732    0.0019 C.ar      1 <0>        -0.0372
      3 C3          2.3728    1.3401   -0.0134 C.ar      1 <0>        -0.1628
      4 C4          2.3064   -0.0554   -0.0203 C.ar      1 <0>         0.1716
      5 N1          1.1410   -0.6702   -0.0124 N.ar      1 <0>        -0.4630
      6 C5          0.0021   -0.0041    0.0020 C.ar      1 <0>         0.1338
      7 Br1         3.9019   -1.0701   -0.0416 Br        1 <0>         0.0390
      8 C6          3.6794    2.0304   -0.0227 C.2       1 <0>         0.5547
      9 O1          4.7085    1.3834   -0.0359 O.2       1 <0>        -0.4966
     10 N2          3.7301    3.3771   -0.0164 N.am      1 <0>        -0.7254
     11 C7          5.0254    4.0615   -0.0255 C.3       1 <0>         0.1232
     12 C8          4.8027    5.5751   -0.0157 C.3       1 <0>         0.0439
     13 N3          6.1015    6.2613   -0.0249 N.3       1 <0>        -0.5330
     14 C9          6.8366    6.0145    1.2241 C.3       1 <0>         0.0113
     15 C10         8.2051    6.6966    1.1478 C.3       1 <0>         0.0625
     16 O2          8.0231    8.0921    0.8933 O.3       1 <0>        -0.3847
     17 C11         7.3113    8.3688   -0.3158 C.3       1 <0>         0.0625
     18 C12         5.9338    7.7037   -0.2543 C.3       1 <0>         0.0186
     19 H1         -0.9561    1.9115    0.0259 H         1 <0>         0.1519
     20 H2          1.1944    3.1531    0.0072 H         1 <0>         0.1462
     21 H3         -0.9310   -0.5478    0.0084 H         1 <0>         0.1728
     22 H4          2.9089    3.8934   -0.0057 H         1 <0>         0.3970
     23 H5          5.5953    3.7724    0.8575 H         1 <0>         0.0724
     24 H6          5.5780    3.7813   -0.9224 H         1 <0>         0.0826
     25 H7          4.2328    5.8642   -0.8987 H         1 <0>         0.0844
     26 H8          4.2501    5.8552    0.8811 H         1 <0>         0.0434
     27 H9          6.2736    6.4212    2.0642 H         1 <0>         0.0459
     28 H10         6.9718    4.9416    1.3610 H         1 <0>         0.0915
     29 H11         8.7308    6.5645    2.0935 H         1 <0>         0.1006
     30 H12         8.7886    6.2526    0.3412 H         1 <0>         0.0624
     31 H13         7.1906    9.4462   -0.4287 H         1 <0>         0.1004
     32 H14         7.8688    7.9734   -1.1650 H         1 <0>         0.0620
     33 H15         5.4099    7.8638   -1.1967 H         1 <0>         0.0887
     34 H16         5.3563    8.1374    0.5621 H         1 <0>         0.0454
@<TRIPOS>BOND
     1    1    6 ar
     2    1    2 ar
     3    1   19 1
     4    2    3 ar
     5    2   20 1
     6    3    4 ar
     7    3    8 1
     8    4    5 ar
     9    4    7 1
    10    5    6 ar
    11    6   21 1
    12    8    9 2
    13    8   10 am
    14   10   11 1
    15   10   22 1
    16   11   12 1
    17   11   23 1
    18   11   24 1
    19   12   13 1
    20   12   25 1
    21   12   26 1
    22   13   18 1
    23   13   14 1
    24   14   15 1
    25   14   27 1
    26   14   28 1
    27   15   16 1
    28   15   29 1
    29   15   30 1
    30   16   17 1
    31   17   18 1
    32   17   31 1
    33   17   32 1
    34   18   33 1
    35   18   34 1
@<TRIPOS>MOLECULE
CHEMBL607864__1
   35    36     0     0     0
SMALL
USER_CHARGES

@<TRIPOS>ATOM
      1 C1         -0.0167    1.3789    0.0096 C.ar      1 <0>        -0.1647
      2 C2          1.1805    2.0732    0.0019 C.ar      1 <0>        -0.0352
      3 C3          2.3728    1.3401   -0.0134 C.ar      1 <0>        -0.1758
      4 C4          2.3064   -0.0554   -0.0203 C.ar      1 <0>         0.1771
      5 N1          1.1410   -0.6702   -0.0124 N.ar      1 <0>        -0.4593
      6 C5          0.0021   -0.0041    0.0020 C.ar      1 <0>         0.1461
      7 Br1         3.9019   -1.0701   -0.0416 Br        1 <0>         0.0432
      8 C6          3.6794    2.0304   -0.0227 C.2       1 <0>         0.5658
      9 O1          4.7085    1.3834   -0.0359 O.2       1 <0>        -0.4859
     10 N2          3.7301    3.3771   -0.0164 N.am      1 <0>        -0.7307
     11 C7          5.0254    4.0615   -0.0255 C.3       1 <0>         0.0977
     12 C8          4.8027    5.5751   -0.0157 C.3       1 <0>        -0.0219
     13 N3          6.1015    6.2613   -0.0249 N.4       1 <0>        -0.3816
     14 C9          6.8200    5.9670    1.2226 C.3       1 <0>        -0.0516
     15 C10         8.1729    6.6829    1.2105 C.3       1 <0>         0.0364
     16 O2          7.9616    8.0878    1.0448 O.3       1 <0>        -0.3556
     17 C11         7.2437    8.4236   -0.1459 C.3       1 <0>         0.0355
     18 C12         5.8890    7.7110   -0.1363 C.3       1 <0>        -0.0424
     19 H1         -0.9561    1.9115    0.0259 H         1 <0>         0.1558
     20 H2          1.1944    3.1531    0.0072 H         1 <0>         0.1444
     21 H3         -0.9310   -0.5478    0.0084 H         1 <0>         0.1778
     22 H4          2.9089    3.8934   -0.0057 H         1 <0>         0.4052
     23 H5          5.5953    3.7724    0.8575 H         1 <0>         0.0927
     24 H6          5.5780    3.7813   -0.9224 H         1 <0>         0.0934
     25 H7          4.2328    5.8642   -0.8987 H         1 <0>         0.1411
     26 H8          4.2501    5.8552    0.8811 H         1 <0>         0.1391
     27 H9          6.2319    6.3154    2.0717 H         1 <0>         0.1419
     28 H10         6.9782    4.8918    1.3062 H         1 <0>         0.1458
     29 H11         8.6894    6.5011    2.1530 H         1 <0>         0.1440
     30 H12         8.7769    6.3058    0.3852 H         1 <0>         0.0834
     31 H13         7.0877    9.5016   -0.1850 H         1 <0>         0.1437
     32 H14         7.8159    8.1060   -1.0176 H         1 <0>         0.0828
     33 H15         5.3562    7.9304   -1.0615 H         1 <0>         0.1446
     34 H16         5.3013    8.0586    0.7133 H         1 <0>         0.1408
     35 H17         6.6464    5.9397   -0.8109 H         1 <0>         0.4266
@<TRIPOS>BOND
     1    1    6 ar
     2    1    2 ar
     3    1   19 1
     4    2    3 ar
     5    2   20 1
     6    3    4 ar
     7    3    8 1
     8    4    5 ar
     9    4    7 1
    10    5    6 ar
    11    6   21 1
    12    8    9 2
    13    8   10 am
    14   10   11 1
    15   10   22 1
    16   11   12 1
    17   11   23 1
    18   11   24 1
    19   12   13 1
    20   12   25 1
    21   12   26 1
    22   13   18 1
    23   13   14 1
    24   13   35 1
    25   14   15 1
    26   14   27 1
    27   14   28 1
    28   15   16 1
    29   15   29 1
    30   15   30 1
    31   16   17 1
    32   17   18 1
    33   17   31 1
    34   17   32 1
    35   18   33 1
    36   18   34 1
@<TRIPOS>MOLECULE
CHEMBL198810
   30    31     0     0     0
SMALL
USER_CHARGES

@<TRIPOS>ATOM
      1 C1         -0.0167    1.3798    0.0096 C.ar      1 <0>        -0.1188
      2 C2          1.1680    2.0953    0.0022 C.ar      1 <0>        -0.1195
      3 C3          2.3774    1.4332   -0.0134 C.ar      1 <0>        -0.1081
      4 C4          2.4048    0.0349   -0.0212 C.ar      1 <0>        -0.0604
      5 C5          1.2034   -0.6808   -0.0131 C.ar      1 <0>        -0.1132
      6 C6          0.0021   -0.0041    0.0020 C.ar      1 <0>        -0.1190
      7 C7          3.6913   -0.6796   -0.0383 C.2       1 <0>        -0.1014
      8 C8          3.7137   -2.0290   -0.0458 C.2       1 <0>        -0.1193
      9 C9          4.9518   -2.7166   -0.0623 C.2       1 <0>        -0.1193
     10 C10         4.9742   -4.0661   -0.0698 C.2       1 <0>        -0.1014
     11 C11         6.2607   -4.7806   -0.0869 C.ar      1 <0>        -0.0604
     12 C12         7.4622   -4.0649   -0.0896 C.ar      1 <0>        -0.1132
     13 C13         8.6635   -4.7416   -0.1052 C.ar      1 <0>        -0.1190
     14 C14         8.6822   -6.1255   -0.1186 C.ar      1 <0>        -0.1188
     15 C15         7.4974   -6.8409   -0.1160 C.ar      1 <0>        -0.1195
     16 C16         6.2881   -6.1789   -0.0947 C.ar      1 <0>        -0.1081
     17 H1         -0.9607    1.9041    0.0260 H         1 <0>         0.1227
     18 H2          1.1452    3.1750    0.0082 H         1 <0>         0.1242
     19 H3          3.3011    1.9929   -0.0200 H         1 <0>         0.1246
     20 H4          1.2164   -1.7607   -0.0194 H         1 <0>         0.1246
     21 H5         -0.9266   -0.5553    0.0079 H         1 <0>         0.1238
     22 H6          4.6175   -0.1241   -0.0449 H         1 <0>         0.1220
     23 H7          2.7875   -2.5845   -0.0392 H         1 <0>         0.1179
     24 H8          5.8780   -2.1611   -0.0689 H         1 <0>         0.1179
     25 H9          4.0480   -4.6216   -0.0632 H         1 <0>         0.1220
     26 H10         7.4492   -2.9850   -0.0798 H         1 <0>         0.1246
     27 H11         9.5922   -4.1904   -0.1073 H         1 <0>         0.1238
     28 H12         9.6263   -6.6498   -0.1315 H         1 <0>         0.1227
     29 H13         7.5202   -7.9206   -0.1266 H         1 <0>         0.1241
     30 H14         5.3644   -6.7385   -0.0885 H         1 <0>         0.1246
@<TRIPOS>BOND
     1    1    6 ar
     2    1    2 ar
     3    1   17 1
     4    2    3 ar
     5    2   18 1
     6    3    4 ar
     7    3   19 1
     8    4    5 ar
     9    4    7 1
    10    5    6 ar
    11    5   20 1
    12    6   21 1
    13    7    8 2
    14    7   22 1
    15    8    9 1
    16    8   23 1
    17    9   10 2
    18    9   24 1
    19   10   11 1
    20   10   25 1
    21   11   16 ar
    22   11   12 ar
    23   12   13 ar
    24   12   26 1
    25   13   14 ar
    26   13   27 1
    27   14   15 ar
    28   14   28 1
    29   15   16 ar
    30   15   29 1
    31   16   30 1
@<TRIPOS>MOLECULE
CHEMBL447043
   31    33     0     0     0
SMALL
USER_CHARGES

@<TRIPOS>ATOM
      1 C1         -0.0167    1.3786    0.0096 C.ar      1 <0>        -0.1778
      2 C2          1.1695    2.0894    0.0021 C.ar      1 <0>        -0.0723
      3 C3          2.3774    1.4200   -0.0130 C.ar      1 <0>        -0.1939
      4 C4          2.3998    0.0311   -0.0206 C.ar      1 <0>         0.2129
      5 C5          1.2064   -0.6798   -0.0130 C.ar      1 <0>        -0.1989
      6 C6          0.0021   -0.0041    0.0020 C.ar      1 <0>        -0.0724
      7 N1          3.6196   -0.6492   -0.0363 N.pl3     1 <0>        -0.7480
      8 C7          3.6414   -2.1140   -0.0443 C.3       1 <0>         0.1900
      9 C8          5.0695   -2.5950   -0.0611 C.2       1 <0>         0.0558
     10 C9          5.7601   -2.9205   -1.1652 C.2       1 <0>        -0.1713
     11 C10         7.0967   -3.3315   -0.7286 C.ar      1 <0>        -0.1141
     12 C11         8.2422   -3.7721   -1.3943 C.ar      1 <0>        -0.0677
     13 C12         9.3631   -4.0872   -0.6794 C.ar      1 <0>        -0.1465
     14 C13         9.3725   -3.9728    0.7041 C.ar      1 <0>        -0.0936
     15 C14         8.2535   -3.5400    1.3809 C.ar      1 <0>        -0.1323
     16 C15         7.1010   -3.2138    0.6732 C.ar      1 <0>         0.1027
     17 N2          5.8561   -2.7592    1.0465 N.pl3     1 <0>        -0.5883
     18 H1          5.5775   -2.5833    1.9588 H         1 <0>         0.4152
     19 H2         -0.9598    1.9046    0.0260 H         1 <0>         0.1184
     20 H3          1.1513    3.1692    0.0077 H         1 <0>         0.1211
     21 H4          3.3034    1.9757   -0.0192 H         1 <0>         0.1185
     22 H5          1.2204   -1.7597   -0.0193 H         1 <0>         0.1195
     23 H6         -0.9261   -0.5561    0.0079 H         1 <0>         0.1208
     24 H7          4.4523   -0.1517   -0.0419 H         1 <0>         0.4018
     25 H8          3.1419   -2.4897    0.8486 H         1 <0>         0.0699
     26 H9          3.1243   -2.4802   -0.9312 H         1 <0>         0.0870
     27 H10         5.3990   -2.8858   -2.1824 H         1 <0>         0.1489
     28 H11         8.2421   -3.8639   -2.4704 H         1 <0>         0.1234
     29 H12        10.2488   -4.4283   -1.1947 H         1 <0>         0.1241
     30 H13        10.2660   -4.2259    1.2554 H         1 <0>         0.1267
     31 H14         8.2706   -3.4547    2.4574 H         1 <0>         0.1205
@<TRIPOS>BOND
     1    1    6 ar
     2    1    2 ar
     3    1   19 1
     4    2    3 ar
     5    2   20 1
     6    3    4 ar
     7    3   21 1
     8    4    5 ar
     9    4    7 1
    10    5    6 ar
    11    5   22 1
    12    6   23 1
    13    7    8 1
    14    7   24 1
    15    8    9 1
    16    8   25 1
    17    8   26 1
    18    9   17 1
    19    9   10 2
    20   10   11 1
    21   10   27 1
    22   11   16 ar
    23   11   12 ar
    24   12   13 ar
    25   12   28 1
    26   13   14 ar
    27   13   29 1
    28   14   15 ar
    29   14   30 1
    30   15   16 ar
    31   15   31 1
    32   16   17 1
    33   17   18 1
@<TRIPOS>MOLECULE
CHEMBL127983
   33    36     0     0     0
SMALL
USER_CHARGES

@<TRIPOS>ATOM
      1 C1         -0.0167    1.3819    0.0096 C.ar      1 <0>        -0.0844
      2 C2          1.1646    2.0980    0.0022 C.ar      1 <0>        -0.1080
      3 C3          2.3816    1.4364   -0.0135 C.ar      1 <0>        -0.0422
      4 C4          2.4146    0.0469   -0.0213 C.ar      1 <0>        -0.1613
      5 C5          1.2134   -0.6828   -0.0132 C.ar      1 <0>        -0.0236
      6 C6          0.0021   -0.0041    0.0020 C.ar      1 <0>        -0.0727
      7 C7          1.5351   -2.1325   -0.0242 C.ar      1 <0>         0.1390
      8 C8          2.9352   -2.2773   -0.0389 C.ar      1 <0>        -0.1703
      9 C9          3.4685   -3.5583   -0.0507 C.ar      1 <0>        -0.0320
     10 C10         2.5677   -4.6353   -0.0471 C.ar      1 <0>         0.1053
     11 N1          1.2627   -4.4006   -0.0329 N.ar      1 <0>        -0.2012
     12 N2          0.7708   -3.2159   -0.0220 N.ar      1 <0>        -0.2141
     13 C11         3.0734   -6.0285   -0.0597 C.ar      1 <0>        -0.0208
     14 C12         4.4458   -6.2750   -0.0693 C.ar      1 <0>        -0.0973
     15 C13         4.9106   -7.5742   -0.0804 C.ar      1 <0>        -0.0694
     16 C14         4.0179   -8.6311   -0.0826 C.ar      1 <0>        -0.1658
     17 C15         2.6552   -8.3928   -0.0736 C.ar      1 <0>        -0.0708
     18 C16         2.1785   -7.0979   -0.0561 C.ar      1 <0>        -0.0750
     19 C17         4.5320  -10.0476   -0.0954 C.3       1 <0>         0.5075
     20 F1          4.6986  -10.4951    1.2196 F         1 <0>        -0.1736
     21 F2          3.6136  -10.8711   -0.7553 F         1 <0>        -0.1742
     22 F3          5.7610  -10.0917   -0.7622 F         1 <0>        -0.1748
     23 C18         3.5359   -0.9230   -0.0376 C.2       1 <0>         0.4562
     24 O1          4.7204   -0.6579   -0.0480 O.2       1 <0>        -0.3977
     25 H1         -0.9612    1.9054    0.0260 H         1 <0>         0.1425
     26 H2          1.1392    3.1777    0.0083 H         1 <0>         0.1426
     27 H3          3.3032    1.9994   -0.0199 H         1 <0>         0.1417
     28 H4         -0.9260   -0.5564    0.0083 H         1 <0>         0.1432
     29 H5          4.5361   -3.7207   -0.0625 H         1 <0>         0.1668
     30 H6          5.1436   -5.4507   -0.0683 H         1 <0>         0.1417
     31 H7          5.9733   -7.7663   -0.0879 H         1 <0>         0.1453
     32 H8          1.9630   -9.2219   -0.0757 H         1 <0>         0.1455
     33 H9          1.1145   -6.9131   -0.0442 H         1 <0>         0.1519
@<TRIPOS>BOND
     1    1    6 ar
     2    1    2 ar
     3    1   25 1
     4    2    3 ar
     5    2   26 1
     6    3    4 ar
     7    3   27 1
     8    4   23 1
     9    4    5 ar
    10    5    6 ar
    11    5    7 1
    12    6   28 1
    13    7   12 ar
    14    7    8 ar
    15    8    9 ar
    16    8   23 1
    17    9   10 ar
    18    9   29 1
    19   10   11 ar
    20   10   13 1
    21   11   12 ar
    22   13   18 ar
    23   13   14 ar
    24   14   15 ar
    25   14   30 1
    26   15   16 ar
    27   15   31 1
    28   16   17 ar
    29   16   19 1
    30   17   18 ar
    31   17   32 1
    32   18   33 1
    33   19   20 1
    34   19   21 1
    35   19   22 1
    36   23   24 2
@<TRIPOS>MOLECULE
CHEMBL459336
   45    47     0     0     0
SMALL
USER_CHARGES

@<TRIPOS>ATOM
      1 C1         -0.3098   -3.3324    1.7148 C.3       1 <0>         0.0808
      2 N1         -0.6165   -2.2131    0.8208 N.pl3     1 <0>        -0.4514
      3 C2         -0.8607   -2.3102   -0.5287 C.ar      1 <0>         0.1082
      4 C3         -0.8979   -3.3830   -1.4153 C.ar      1 <0>        -0.1302
      5 C4         -1.1780   -3.1625   -2.7450 C.ar      1 <0>        -0.0880
      6 C5         -1.4242   -1.8778   -3.2134 C.ar      1 <0>        -0.1477
      7 C6         -1.3933   -0.8106   -2.3638 C.ar      1 <0>        -0.0630
      8 C7         -1.1110   -1.0089   -1.0059 C.ar      1 <0>        -0.1193
      9 C8         -1.0078   -0.1352    0.1035 C.2       1 <0>        -0.1637
     10 C9         -0.7138   -0.8872    1.1962 C.2       1 <0>         0.0217
     11 C10        -0.5260   -0.3715    2.5606 C.2       1 <0>         0.5825
     12 O1         -0.4918   -1.1408    3.5023 O.2       1 <0>        -0.5354
     13 N2         -0.3918    0.9535    2.7677 N.am      1 <0>        -0.6029
     14 C11        -0.6107    1.8931    1.6651 C.3       1 <0>         0.0593
     15 C12        -0.0272    1.4542    4.0953 C.3       1 <0>         0.1156
     16 C13         1.4963    1.5419    4.2065 C.3       1 <0>        -0.1281
     17 C14         1.8771    2.0648    5.5930 C.3       1 <0>        -0.0781
     18 C15         3.3776    2.1512    5.7026 C.ar      1 <0>        -0.0821
     19 C16         4.1008    1.0661    6.1615 C.ar      1 <0>        -0.1172
     20 C17         5.4772    1.1454    6.2619 C.ar      1 <0>        -0.1180
     21 C18         6.1305    2.3096    5.9031 C.ar      1 <0>        -0.1248
     22 C19         5.4074    3.3943    5.4434 C.ar      1 <0>        -0.1185
     23 C20         4.0314    3.3136    5.3389 C.ar      1 <0>        -0.1180
     24 H1         -1.2203   -3.6529    2.2212 H         1 <0>         0.0750
     25 H2          0.0938   -4.1615    1.1337 H         1 <0>         0.0813
     26 H3          0.4252   -3.0156    2.4547 H         1 <0>         0.0908
     27 H4         -0.7073   -4.3853   -1.0610 H         1 <0>         0.1210
     28 H5         -1.2063   -3.9963   -3.4309 H         1 <0>         0.1277
     29 H6         -1.6416   -1.7224   -4.2598 H         1 <0>         0.1248
     30 H7         -1.5856    0.1844   -2.7372 H         1 <0>         0.1252
     31 H8         -1.1423    0.9362    0.0851 H         1 <0>         0.1735
     32 H9         -1.6651    1.8899    1.3890 H         1 <0>         0.0702
     33 H10        -0.3203    2.8957    1.9791 H         1 <0>         0.0804
     34 H11        -0.0094    1.5927    0.8070 H         1 <0>         0.0840
     35 H12        -0.4598    2.4439    4.2418 H         1 <0>         0.0836
     36 H13        -0.4086    0.7745    4.8573 H         1 <0>         0.0896
     37 H14         1.9289    0.5522    4.0600 H         1 <0>         0.0671
     38 H15         1.8777    2.2216    3.4445 H         1 <0>         0.0672
     39 H16         1.4445    3.0545    5.7396 H         1 <0>         0.0751
     40 H17         1.4957    1.3851    6.3550 H         1 <0>         0.0758
     41 H18         3.5904    0.1566    6.4418 H         1 <0>         0.1209
     42 H19         6.0421    0.2979    6.6211 H         1 <0>         0.1216
     43 H20         7.2058    2.3717    5.9823 H         1 <0>         0.1211
     44 H21         5.9178    4.3040    5.1634 H         1 <0>         0.1217
     45 H22         3.4668    4.1598    4.9762 H         1 <0>         0.1209
@<TRIPOS>BOND
     1    1    2 1
     2    1   24 1
     3    1   25 1
     4    1   26 1
     5    2   10 1
     6    2    3 1
     7    3    8 ar
     8    3    4 ar
     9    4    5 ar
    10    4   27 1
    11    5    6 ar
    12    5   28 1
    13    6    7 ar
    14    6   29 1
    15    7    8 ar
    16    7   30 1
    17    8    9 1
    18    9   10 2
    19    9   31 1
    20   10   11 1
    21   11   12 2
    22   11   13 am
    23   13   14 1
    24   13   15 1
    25   14   32 1
    26   14   33 1
    27   14   34 1
    28   15   16 1
    29   15   35 1
    30   15   36 1
    31   16   17 1
    32   16   37 1
    33   16   38 1
    34   17   18 1
    35   17   39 1
    36   17   40 1
    37   18   23 ar
    38   18   19 ar
    39   19   20 ar
    40   19   41 1
    41   20   21 ar
    42   20   42 1
    43   21   22 ar
    44   21   43 1
    45   22   23 ar
    46   22   44 1
    47   23   45 1
@<TRIPOS>MOLECULE
CHEMBL18317
   42    44     0     0     0
SMALL
USER_CHARGES

@<TRIPOS>ATOM
      1 C1         -0.0184    1.5028    0.0103 C.3       1 <0>        -0.1302
      2 C2          0.0021   -0.0041    0.0020 C.2       1 <0>         0.0291
      3 C3          0.0061   -0.6954   -1.1674 C.2       1 <0>        -0.2308
      4 C4          0.0259   -2.1051   -1.1488 C.2       1 <0>         0.5163
      5 O1          0.0297   -2.7124   -2.2045 O.2       1 <0>        -0.4585
      6 O2          0.0411   -2.7950    0.0025 O.3       1 <0>        -0.2691
      7 C5          0.0380   -2.1693    1.1991 C.ar      1 <0>         0.1862
      8 C6          0.0243   -0.7629    1.2543 C.ar      1 <0>        -0.1841
      9 C7          0.0261   -0.1105    2.4922 C.ar      1 <0>        -0.0143
     10 C8          0.0465   -0.8421    3.6444 C.ar      1 <0>        -0.2246
     11 C9          0.0655   -2.2344    3.5961 C.ar      1 <0>         0.1904
     12 C10         0.0533   -2.8969    2.3791 C.ar      1 <0>        -0.1717
     13 O3          0.0862   -2.9478    4.7507 O.3       1 <0>        -0.3027
     14 C11         0.0871   -2.2057    5.9719 C.3       1 <0>         0.1390
     15 C12         0.1112   -3.1589    7.1389 C.2       1 <0>         0.0501
     16 C13         0.1340   -4.5040    6.9565 C.2       1 <0>        -0.2033
     17 S1          0.1550   -5.0657    8.6514 S.3       1 <0>         0.1169
     18 C14         0.1329   -3.5561    9.3953 C.2       1 <0>         0.0703
     19 N1          0.1166   -2.7247    8.3835 N.2       1 <0>        -0.5144
     20 C15         0.1367   -3.2381   10.8684 C.3       1 <0>        -0.0082
     21 C16        -1.0971   -3.8582   11.5272 C.3       1 <0>        -0.1489
     22 C17         1.4009   -3.8125   11.5108 C.3       1 <0>        -0.1490
     23 C18        -0.0109    0.0426   -2.4812 C.3       1 <0>        -0.0970
     24 H1          1.0042    1.8801    0.0026 H         1 <0>         0.0916
     25 H2         -0.5455    1.8639   -0.8728 H         1 <0>         0.0877
     26 H3         -0.5286    1.8543    0.9071 H         1 <0>         0.0795
     27 H4          0.0118    0.9686    2.5359 H         1 <0>         0.1449
     28 H5          0.0483   -0.3384    4.5997 H         1 <0>         0.1428
     29 H6          0.0678   -3.9764    2.3498 H         1 <0>         0.1535
     30 H7          0.9686   -1.5656    6.0074 H         1 <0>         0.0882
     31 H8         -0.8112   -1.5904    6.0238 H         1 <0>         0.0882
     32 H9          0.1383   -5.0758    6.0403 H         1 <0>         0.2019
     33 H10         0.1178   -2.1571   11.0068 H         1 <0>         0.1046
     34 H11        -1.0782   -4.9392   11.3888 H         1 <0>         0.0616
     35 H12        -1.0943   -3.6282   12.5926 H         1 <0>         0.0747
     36 H13        -1.9977   -3.4490   11.0695 H         1 <0>         0.0620
     37 H14         2.2799   -3.3707   11.0414 H         1 <0>         0.0620
     38 H15         1.4037   -3.5825   12.5763 H         1 <0>         0.0747
     39 H16         1.4198   -4.8935   11.3724 H         1 <0>         0.0616
     40 H17         1.0125    0.2352   -2.8031 H         1 <0>         0.0756
     41 H18        -0.5199   -0.5627   -3.2313 H         1 <0>         0.0772
     42 H19        -0.5377    0.9891   -2.3595 H         1 <0>         0.0761
@<TRIPOS>BOND
     1    1    2 1
     2    1   24 1
     3    1   25 1
     4    1   26 1
     5    2    8 1
     6    2    3 2
     7    3    4 1
     8    3   23 1
     9    4    5 2
    10    4    6 1
    11    6    7 1
    12    7   12 ar
    13    7    8 ar
    14    8    9 ar
    15    9   10 ar
    16    9   27 1
    17   10   11 ar
    18   10   28 1
    19   11   12 ar
    20   11   13 1
    21   12   29 1
    22   13   14 1
    23   14   15 1
    24   14   30 1
    25   14   31 1
    26   15   19 1
    27   15   16 2
    28   16   17 1
    29   16   32 1
    30   17   18 1
    31   18   19 2
    32   18   20 1
    33   20   21 1
    34   20   22 1
    35   20   33 1
    36   21   34 1
    37   21   35 1
    38   21   36 1
    39   22   37 1
    40   22   38 1
    41   22   39 1
    42   23   40 1
    43   23   41 1
    44   23   42 1
@<TRIPOS>MOLECULE
CHEMBL441306
   25    25     0     0     0
SMALL
USER_CHARGES

@<TRIPOS>ATOM
      1 C1         -0.0869    1.3750    0.0497 C.3       1 <0>         0.0144
      2 N1          0.0024   -0.0843   -0.0444 N.pl3     1 <0>        -0.4524
      3 C2          0.1018   -0.8921    1.1737 C.3       1 <0>         0.1804
      4 C3          1.3763   -0.6036    1.8512 C.1       1 <0>        -0.2789
      5 C4          2.3928   -0.3734    2.3916 C.1       1 <0>        -0.0800
      6 C5         -0.0066   -0.6614   -1.2070 C.2       1 <0>         0.4025
      7 C6         -0.0257   -2.1653   -1.3016 C.3       1 <0>        -0.1723
      8 C7          0.0019    0.1496   -2.4279 C.2       1 <0>        -0.0978
      9 C8         -0.6258   -0.1596   -3.6156 C.2       1 <0>        -0.0493
     10 C9         -0.3578    0.8856   -4.5070 C.2       1 <0>        -0.2040
     11 C10         0.4114    1.7939   -3.8624 C.2       1 <0>         0.0943
     12 N2          0.6328    1.3606   -2.5950 N.pl3     1 <0>        -0.5479
     13 H1          1.1515    1.8261   -1.9204 H         1 <0>         0.4233
     14 H2          0.9074    1.8077   -0.0608 H         1 <0>         0.0993
     15 H3         -0.7366    1.7510   -0.7406 H         1 <0>         0.1147
     16 H4         -0.4978    1.6520    1.0205 H         1 <0>         0.1238
     17 H5         -0.7266   -0.6494    1.8392 H         1 <0>         0.1430
     18 H6          0.0603   -1.9496    0.9127 H         1 <0>         0.1438
     19 H7          3.3020   -0.1676    2.8749 H         1 <0>         0.2339
     20 H8         -1.0534   -2.5210   -1.2273 H         1 <0>         0.1389
     21 H9          0.3977   -2.4747   -2.2571 H         1 <0>         0.1292
     22 H10        -1.2134   -1.0424   -3.8200 H         1 <0>         0.1664
     23 H11        -0.7031    0.9549   -5.5280 H         1 <0>         0.1652
     24 H12         0.7848    2.7146   -4.2859 H         1 <0>         0.1924
     25 H13         0.5646   -2.5880   -0.4886 H         1 <0>         0.1171
@<TRIPOS>BOND
     1    1    2 1
     2    1   14 1
     3    1   15 1
     4    1   16 1
     5    2    3 1
     6    2    6 2
     7    3    4 1
     8    3   17 1
     9    3   18 1
    10    4    5 3
    11    5   19 1
    12    6    7 1
    13    6    8 1
    14    7   20 1
    15    7   21 1
    16    7   25 1
    17    8   12 1
    18    8    9 2
    19    9   10 1
    20    9   22 1
    21   10   11 2
    22   10   23 1
    23   11   12 1
    24   11   24 1
    25   12   13 1
@<TRIPOS>MOLECULE
CHEMBL269073
   30    32     0     0     0
SMALL
USER_CHARGES

@<TRIPOS>ATOM
      1 C1         -0.0173    1.4248    0.0099 C.3       1 <0>         0.0244
      2 O1          0.0021   -0.0041    0.0020 O.3       1 <0>        -0.3132
      3 C2          0.6262   -0.6188    1.0422 C.ar      1 <0>         0.1138
      4 C3          1.2037    0.1445    2.0538 C.ar      1 <0>        -0.1564
      5 C4          1.8393   -0.4616    3.1138 C.ar      1 <0>        -0.0948
      6 C5          1.9098   -1.8496    3.1832 C.ar      1 <0>         0.0881
      7 C6          1.3273   -2.6230    2.1620 C.ar      1 <0>        -0.0773
      8 C7          0.6802   -1.9970    1.0944 C.ar      1 <0>        -0.1029
      9 C8          1.5696   -4.0232    2.5219 C.2       1 <0>        -0.1237
     10 C9          2.2466   -4.0207    3.6754 C.2       1 <0>        -0.0035
     11 N1          2.4593   -2.7249    4.0898 N.pl3     1 <0>        -0.5018
     12 C10         3.1725   -2.3898    5.3312 C.3       1 <0>         0.0912
     13 C11         3.2318   -3.6514    6.2008 C.3       1 <0>        -0.0159
     14 N2          3.7505   -4.7758    5.4110 N.4       1 <0>        -0.5093
     15 C12         2.7307   -5.2256    4.4496 C.3       1 <0>         0.0800
     16 H1          1.0053    1.8021    0.0021 H         1 <0>         0.0579
     17 H2         -0.5445    1.7859   -0.8732 H         1 <0>         0.1067
     18 H3         -0.5275    1.7763    0.9067 H         1 <0>         0.0579
     19 H4          1.1527    1.2222    2.0061 H         1 <0>         0.1410
     20 H5          2.2840    0.1408    3.8921 H         1 <0>         0.1277
     21 H6          0.2282   -2.5881    0.3115 H         1 <0>         0.1403
     22 H7          1.2596   -4.8929    1.9614 H         1 <0>         0.1616
     23 H8          4.1834   -2.0564    5.0967 H         1 <0>         0.1035
     24 H9          2.6380   -1.6017    5.8617 H         1 <0>         0.1266
     25 H10         3.8880   -3.4737    7.0528 H         1 <0>         0.1557
     26 H11         2.2309   -3.8917    6.5594 H         1 <0>         0.1421
     27 H12         4.5759   -4.4814    4.9109 H         1 <0>         0.4339
     28 H13         1.8959   -5.6788    4.9843 H         1 <0>         0.1491
     29 H14         3.1668   -5.9522    3.7640 H         1 <0>         0.1560
     30 H15         3.9882   -5.5376    6.0285 H         1 <0>         0.4414
@<TRIPOS>BOND
     1    1    2 1
     2    1   16 1
     3    1   17 1
     4    1   18 1
     5    2    3 1
     6    3    8 ar
     7    3    4 ar
     8    4    5 ar
     9    4   19 1
    10    5    6 ar
    11    5   20 1
    12    6   11 1
    13    6    7 ar
    14    7    8 ar
    15    7    9 1
    16    8   21 1
    17    9   10 2
    18    9   22 1
    19   10   15 1
    20   10   11 1
    21   11   12 1
    22   12   13 1
    23   12   23 1
    24   12   24 1
    25   13   14 1
    26   13   25 1
    27   13   26 1
    28   14   15 1
    29   14   27 1
    30   14   30 1
    31   15   28 1
    32   15   29 1
@<TRIPOS>MOLECULE
CHEMBL269073__1
   29    31     0     0     0
SMALL
USER_CHARGES

@<TRIPOS>ATOM
      1 C1         -0.0173    1.4248    0.0099 C.3       1 <0>         0.0283
      2 O1          0.0021   -0.0041    0.0020 O.3       1 <0>        -0.3190
      3 C2         -1.2011   -0.6379    0.0101 C.ar      1 <0>         0.0983
      4 C3         -2.3777    0.1071    0.0196 C.ar      1 <0>        -0.1754
      5 C4         -3.6039   -0.5184    0.0282 C.ar      1 <0>        -0.0920
      6 C5         -3.6774   -1.9080    0.0273 C.ar      1 <0>         0.0746
      7 C6         -2.4901   -2.6629    0.0172 C.ar      1 <0>        -0.0712
      8 C7         -1.2517   -2.0172    0.0032 C.ar      1 <0>        -0.1091
      9 C8         -2.9012   -4.0698    0.0180 C.2       1 <0>        -0.1944
     10 C9         -4.2388   -4.0879    0.0283 C.2       1 <0>         0.0458
     11 N1         -4.7245   -2.7999    0.0336 N.pl3     1 <0>        -0.4868
     12 C10        -6.1597   -2.4813    0.0423 C.3       1 <0>         0.0723
     13 C11        -6.9333   -3.7377   -0.3739 C.3       1 <0>         0.0449
     14 N2         -6.4846   -4.8847    0.4275 N.3       1 <0>        -0.6823
     15 C12        -5.1302   -5.3094    0.0344 C.3       1 <0>         0.1184
     16 H1          1.0053    1.8021    0.0021 H         1 <0>         0.0995
     17 H2         -0.5445    1.7859   -0.8732 H         1 <0>         0.0537
     18 H3         -0.5275    1.7763    0.9067 H         1 <0>         0.0536
     19 H4         -2.3276    1.1859    0.0205 H         1 <0>         0.1317
     20 H5         -4.5096    0.0698    0.0362 H         1 <0>         0.1208
     21 H6         -0.3388   -2.5940   -0.0091 H         1 <0>         0.1317
     22 H7         -2.2476   -4.9296    0.0112 H         1 <0>         0.1499
     23 H8         -6.4629   -2.1781    1.0444 H         1 <0>         0.0783
     24 H9         -6.3615   -1.6750   -0.6630 H         1 <0>         0.0890
     25 H10        -7.9993   -3.5773   -0.2123 H         1 <0>         0.1014
     26 H11        -6.7540   -3.9407   -1.4297 H         1 <0>         0.0853
     27 H12        -6.5261   -4.6752    1.4136 H         1 <0>         0.3490
     28 H13        -5.1569   -5.7508   -0.9619 H         1 <0>         0.0995
     29 H14        -4.7510   -6.0384    0.7506 H         1 <0>         0.1039
@<TRIPOS>BOND
     1    1    2 1
     2    1   16 1
     3    1   17 1
     4    1   18 1
     5    2    3 1
     6    3    8 ar
     7    3    4 ar
     8    4    5 ar
     9    4   19 1
    10    5    6 ar
    11    5   20 1
    12    6   11 1
    13    6    7 ar
    14    7    8 ar
    15    7    9 1
    16    8   21 1
    17    9   10 2
    18    9   22 1
    19   10   15 1
    20   10   11 1
    21   11   12 1
    22   12   13 1
    23   12   23 1
    24   12   24 1
    25   13   14 1
    26   13   25 1
    27   13   26 1
    28   14   15 1
    29   14   27 1
    30   15   28 1
    31   15   29 1
@<TRIPOS>MOLECULE
CHEMBL278669
   49    50     0     0     0
SMALL
USER_CHARGES

@<TRIPOS>ATOM
      1 C1         -0.0184    1.5028    0.0103 C.3       1 <0>        -0.2000
      2 C2          0.0021   -0.0041    0.0020 C.2       1 <0>         0.3890
      3 O1          0.0203   -0.6161    1.0491 O.2       1 <0>        -0.4283
      4 C3         -0.0001   -0.7311   -1.2731 C.ar      1 <0>        -0.1640
      5 C4         -0.0153   -0.0286   -2.4844 C.ar      1 <0>        -0.0666
      6 C5         -0.0168   -0.7206   -3.6798 C.ar      1 <0>         0.0803
      7 C6         -0.0032   -2.1109   -3.6838 C.ar      1 <0>        -0.1339
      8 C7          0.0118   -2.8127   -2.4954 C.ar      1 <0>        -0.1850
      9 C8          0.0189   -2.1349   -1.2857 C.ar      1 <0>         0.1511
     10 O2          0.0389   -2.8259   -0.1183 O.3       1 <0>        -0.2695
     11 C9          0.0574   -4.2519   -0.2087 C.3       1 <0>         0.0241
     12 C10         0.0783   -4.8519    1.1986 C.3       1 <0>         0.1140
     13 C11         0.2239   -6.3719    1.1028 C.3       1 <0>         0.0333
     14 O3          0.3604   -6.9210    2.4151 O.3       1 <0>        -0.3772
     15 C12         0.5036   -8.3426    2.4383 C.3       1 <0>         0.0294
     16 O4         -1.1411   -4.5316    1.8711 O.3       1 <0>        -0.5360
     17 O5         -0.0319   -0.0397   -4.8569 O.3       1 <0>        -0.3064
     18 C13        -0.0326   -0.8170   -6.0560 C.3       1 <0>         0.1016
     19 C14        -0.0503    0.1020   -7.2503 C.ar      1 <0>        -0.0984
     20 C15        -1.2557    0.5160   -7.7861 C.ar      1 <0>        -0.0615
     21 C16        -1.2719    1.3588   -8.8814 C.ar      1 <0>        -0.1208
     22 C17        -0.0828    1.7882   -9.4409 C.ar      1 <0>        -0.0606
     23 C18         1.1222    1.3751   -8.9047 C.ar      1 <0>        -0.1851
     24 C19         1.1385    0.5355   -7.8064 C.ar      1 <0>        -0.0443
     25 C20         2.4184    1.8428   -9.5148 C.3       1 <0>         0.5087
     26 F1          2.1466    2.6791  -10.6029 F         1 <0>        -0.1756
     27 F2          3.1567    2.5475   -8.5580 F         1 <0>        -0.1744
     28 F3          3.1551    0.7360   -9.9500 F         1 <0>        -0.1756
     29 H1          1.0042    1.8801    0.0026 H         1 <0>         0.0974
     30 H2         -0.5455    1.8639   -0.8728 H         1 <0>         0.0850
     31 H3         -0.5286    1.8543    0.9071 H         1 <0>         0.0893
     32 H4         -0.0262    1.0513   -2.4839 H         1 <0>         0.1501
     33 H5         -0.0048   -2.6450   -4.6225 H         1 <0>         0.1361
     34 H6          0.0222   -3.8926   -2.5077 H         1 <0>         0.1367
     35 H7         -0.8328   -4.5941   -0.7364 H         1 <0>         0.0692
     36 H8          0.9470   -4.5699   -0.7525 H         1 <0>         0.0748
     37 H9          0.9197   -4.4407    1.7564 H         1 <0>         0.1194
     38 H10        -0.6602   -6.7921    0.6233 H         1 <0>         0.0563
     39 H11         1.1076   -6.6159    0.5132 H         1 <0>         0.0617
     40 H12        -0.3747   -8.8037    1.9865 H         1 <0>         0.0426
     41 H13         1.3930   -8.6274    1.8763 H         1 <0>         0.0427
     42 H14         0.6016   -8.6811    3.4697 H         1 <0>         0.0907
     43 H15        -1.9335   -4.8668    1.4297 H         1 <0>         0.3714
     44 H16         0.8635   -1.4367   -6.0877 H         1 <0>         0.0753
     45 H17        -0.9163   -1.4547   -6.0751 H         1 <0>         0.0770
     46 H18        -2.1845    0.1805   -7.3491 H         1 <0>         0.1362
     47 H19        -2.2135    1.6816   -9.3005 H         1 <0>         0.1407
     48 H20        -0.0955    2.4462  -10.2973 H         1 <0>         0.1424
     49 H21         2.0801    0.2157   -7.3850 H         1 <0>         0.1366
@<TRIPOS>BOND
     1    1    2 1
     2    1   29 1
     3    1   30 1
     4    1   31 1
     5    2    3 2
     6    2    4 1
     7    4    9 ar
     8    4    5 ar
     9    5    6 ar
    10    5   32 1
    11    6    7 ar
    12    6   17 1
    13    7    8 ar
    14    7   33 1
    15    8    9 ar
    16    8   34 1
    17    9   10 1
    18   10   11 1
    19   11   12 1
    20   11   35 1
    21   11   36 1
    22   12   13 1
    23   12   16 1
    24   12   37 1
    25   13   14 1
    26   13   38 1
    27   13   39 1
    28   14   15 1
    29   15   40 1
    30   15   41 1
    31   15   42 1
    32   16   43 1
    33   17   18 1
    34   18   19 1
    35   18   44 1
    36   18   45 1
    37   19   24 ar
    38   19   20 ar
    39   20   21 ar
    40   20   46 1
    41   21   22 ar
    42   21   47 1
    43   22   23 ar
    44   22   48 1
    45   23   24 ar
    46   23   25 1
    47   24   49 1
    48   25   26 1
    49   25   27 1
    50   25   28 1
@<TRIPOS>MOLECULE
CHEMBL278669__1
   49    50     0     0     0
SMALL
USER_CHARGES

@<TRIPOS>ATOM
      1 C1         -0.0184    1.5028    0.0103 C.3       1 <0>        -0.2000
      2 C2          0.0021   -0.0041    0.0020 C.2       1 <0>         0.3890
      3 O1          0.0203   -0.6161    1.0491 O.2       1 <0>        -0.4283
      4 C3         -0.0001   -0.7311   -1.2731 C.ar      1 <0>        -0.1640
      5 C4         -0.0153   -0.0286   -2.4844 C.ar      1 <0>        -0.0666
      6 C5         -0.0168   -0.7206   -3.6798 C.ar      1 <0>         0.0803
      7 C6         -0.0032   -2.1109   -3.6838 C.ar      1 <0>        -0.1339
      8 C7          0.0118   -2.8127   -2.4954 C.ar      1 <0>        -0.1850
      9 C8          0.0189   -2.1349   -1.2857 C.ar      1 <0>         0.1511
     10 O2          0.0389   -2.8259   -0.1183 O.3       1 <0>        -0.2695
     11 C9          0.0574   -4.2519   -0.2087 C.3       1 <0>         0.0241
     12 C10         0.0783   -4.8519    1.1986 C.3       1 <0>         0.1140
     13 C11        -0.0275   -6.3753    1.1051 C.3       1 <0>         0.0333
     14 O3         -0.1252   -6.9276    2.4194 O.3       1 <0>        -0.3772
     15 C12        -0.2292   -8.3526    2.4449 C.3       1 <0>         0.0294
     16 O4          1.3006   -4.4983    1.8490 O.3       1 <0>        -0.5361
     17 O5         -0.0319   -0.0397   -4.8569 O.3       1 <0>        -0.3064
     18 C13        -0.0326   -0.8170   -6.0560 C.3       1 <0>         0.1016
     19 C14        -0.0503    0.1020   -7.2503 C.ar      1 <0>        -0.0984
     20 C15        -1.2557    0.5160   -7.7861 C.ar      1 <0>        -0.0615
     21 C16        -1.2719    1.3588   -8.8814 C.ar      1 <0>        -0.1208
     22 C17        -0.0828    1.7882   -9.4409 C.ar      1 <0>        -0.0606
     23 C18         1.1222    1.3751   -8.9047 C.ar      1 <0>        -0.1850
     24 C19         1.1385    0.5355   -7.8064 C.ar      1 <0>        -0.0443
     25 C20         2.4184    1.8428   -9.5148 C.3       1 <0>         0.5087
     26 F1          2.1466    2.6791  -10.6029 F         1 <0>        -0.1756
     27 F2          3.1567    2.5475   -8.5580 F         1 <0>        -0.1744
     28 F3          3.1551    0.7360   -9.9500 F         1 <0>        -0.1756
     29 H1          1.0042    1.8801    0.0026 H         1 <0>         0.0976
     30 H2         -0.5455    1.8639   -0.8728 H         1 <0>         0.0850
     31 H3         -0.5286    1.8543    0.9071 H         1 <0>         0.0892
     32 H4         -0.0262    1.0513   -2.4839 H         1 <0>         0.1501
     33 H5         -0.0048   -2.6450   -4.6225 H         1 <0>         0.1361
     34 H6          0.0222   -3.8926   -2.5077 H         1 <0>         0.1367
     35 H7         -0.8328   -4.5941   -0.7364 H         1 <0>         0.0747
     36 H8          0.9470   -4.5699   -0.7525 H         1 <0>         0.0692
     37 H9         -0.7637   -4.4636    1.7716 H         1 <0>         0.1194
     38 H10        -0.9148   -6.6434    0.5315 H         1 <0>         0.0617
     39 H11         0.8589   -6.7714    0.6096 H         1 <0>         0.0563
     40 H12        -1.1206   -8.6616    1.8991 H         1 <0>         0.0426
     41 H13         0.6530   -8.7897    1.9772 H         1 <0>         0.0426
     42 H14        -0.2993   -8.6934    3.4779 H         1 <0>         0.0908
     43 H15         2.0937   -4.8120    1.3933 H         1 <0>         0.3715
     44 H16         0.8635   -1.4367   -6.0877 H         1 <0>         0.0753
     45 H17        -0.9163   -1.4547   -6.0751 H         1 <0>         0.0770
     46 H18        -2.1845    0.1805   -7.3491 H         1 <0>         0.1362
     47 H19        -2.2135    1.6816   -9.3005 H         1 <0>         0.1407
     48 H20        -0.0955    2.4462  -10.2973 H         1 <0>         0.1424
     49 H21         2.0801    0.2157   -7.3850 H         1 <0>         0.1366
@<TRIPOS>BOND
     1    1    2 1
     2    1   29 1
     3    1   30 1
     4    1   31 1
     5    2    3 2
     6    2    4 1
     7    4    9 ar
     8    4    5 ar
     9    5    6 ar
    10    5   32 1
    11    6    7 ar
    12    6   17 1
    13    7    8 ar
    14    7   33 1
    15    8    9 ar
    16    8   34 1
    17    9   10 1
    18   10   11 1
    19   11   12 1
    20   11   35 1
    21   11   36 1
    22   12   13 1
    23   12   16 1
    24   12   37 1
    25   13   14 1
    26   13   38 1
    27   13   39 1
    28   14   15 1
    29   15   40 1
    30   15   41 1
    31   15   42 1
    32   16   43 1
    33   17   18 1
    34   18   19 1
    35   18   44 1
    36   18   45 1
    37   19   24 ar
    38   19   20 ar
    39   20   21 ar
    40   20   46 1
    41   21   22 ar
    42   21   47 1
    43   22   23 ar
    44   22   48 1
    45   23   24 ar
    46   23   25 1
    47   24   49 1
    48   25   26 1
    49   25   27 1
    50   25   28 1
@<TRIPOS>MOLECULE
CHEMBL18327
   41    43     0     0     0
SMALL
USER_CHARGES

@<TRIPOS>ATOM
      1 C1         -0.0184    1.5028    0.0103 C.3       1 <0>        -0.1301
      2 C2          0.0021   -0.0041    0.0020 C.2       1 <0>         0.0267
      3 C3          0.0061   -0.6954   -1.1674 C.2       1 <0>        -0.2272
      4 C4          0.0259   -2.1051   -1.1488 C.2       1 <0>         0.5161
      5 O1          0.0297   -2.7124   -2.2045 O.2       1 <0>        -0.4563
      6 O2          0.0411   -2.7950    0.0025 O.3       1 <0>        -0.2685
      7 C5          0.0380   -2.1693    1.1991 C.ar      1 <0>         0.1871
      8 C6          0.0243   -0.7629    1.2543 C.ar      1 <0>        -0.1794
      9 C7          0.0261   -0.1105    2.4922 C.ar      1 <0>        -0.0134
     10 C8          0.0465   -0.8421    3.6444 C.ar      1 <0>        -0.2240
     11 C9          0.0655   -2.2344    3.5961 C.ar      1 <0>         0.1855
     12 C10         0.0533   -2.8969    2.3791 C.ar      1 <0>        -0.1651
     13 O3          0.0862   -2.9478    4.7507 O.3       1 <0>        -0.2973
     14 C11         0.0871   -2.2057    5.9719 C.3       1 <0>         0.1477
     15 C12         0.1112   -3.1589    7.1389 C.2       1 <0>         0.2851
     16 N1          1.1799   -3.6235    7.7243 N.2       1 <0>        -0.5129
     17 C13         0.8363   -4.4441    8.7234 C.2       1 <0>         0.2583
     18 N2         -0.4625   -4.5118    8.7858 N.2       1 <0>        -0.3198
     19 O4         -0.9611   -3.6700    7.7569 O.3       1 <0>        -0.0936
     20 C14         1.7962   -5.1721    9.6287 C.3       1 <0>        -0.0129
     21 C15         1.5531   -4.7461   11.0780 C.3       1 <0>        -0.1479
     22 C16         1.5771   -6.6806    9.4971 C.3       1 <0>        -0.1487
     23 C17        -0.0109    0.0426   -2.4812 C.3       1 <0>        -0.0979
     24 H1          1.0042    1.8801    0.0026 H         1 <0>         0.0920
     25 H2         -0.5455    1.8639   -0.8728 H         1 <0>         0.0880
     26 H3         -0.5286    1.8543    0.9071 H         1 <0>         0.0798
     27 H4          0.0118    0.9686    2.5359 H         1 <0>         0.1472
     28 H5          0.0483   -0.3384    4.5997 H         1 <0>         0.1442
     29 H6          0.0678   -3.9764    2.3498 H         1 <0>         0.1549
     30 H7          0.9686   -1.5656    6.0074 H         1 <0>         0.1215
     31 H8         -0.8112   -1.5904    6.0238 H         1 <0>         0.1118
     32 H9          2.8198   -4.9276    9.3449 H         1 <0>         0.1097
     33 H10         2.2474   -5.2726   11.7328 H         1 <0>         0.0778
     34 H11         1.7093   -3.6714   11.1718 H         1 <0>         0.0610
     35 H12         0.5295   -4.9906   11.3618 H         1 <0>         0.0651
     36 H13         1.7502   -6.9842    8.4646 H         1 <0>         0.0616
     37 H14         2.2713   -7.2072   10.1519 H         1 <0>         0.0779
     38 H15         0.5535   -6.9252    9.7809 H         1 <0>         0.0650
     39 H16         1.0125    0.2352   -2.8031 H         1 <0>         0.0764
     40 H17        -0.5199   -0.5627   -3.2313 H         1 <0>         0.0777
     41 H18        -0.5377    0.9891   -2.3595 H         1 <0>         0.0768
@<TRIPOS>BOND
     1    1    2 1
     2    1   24 1
     3    1   25 1
     4    1   26 1
     5    2    8 1
     6    2    3 2
     7    3    4 1
     8    3   23 1
     9    4    5 2
    10    4    6 1
    11    6    7 1
    12    7   12 ar
    13    7    8 ar
    14    8    9 ar
    15    9   10 ar
    16    9   27 1
    17   10   11 ar
    18   10   28 1
    19   11   12 ar
    20   11   13 1
    21   12   29 1
    22   13   14 1
    23   14   15 1
    24   14   30 1
    25   14   31 1
    26   15   19 1
    27   15   16 2
    28   16   17 1
    29   17   18 2
    30   17   20 1
    31   18   19 1
    32   20   21 1
    33   20   22 1
    34   20   32 1
    35   21   33 1
    36   21   34 1
    37   21   35 1
    38   22   36 1
    39   22   37 1
    40   22   38 1
    41   23   39 1
    42   23   40 1
    43   23   41 1
@<TRIPOS>MOLECULE
CHEMBL16541
   42    44     0     0     0
SMALL
USER_CHARGES

@<TRIPOS>ATOM
      1 C1         -0.0167    1.3781    0.0096 C.ar      1 <0>        -0.1066
      2 C2          1.1709    2.0855    0.0021 C.ar      1 <0>        -0.1228
      3 C3          2.3773    1.4107   -0.0130 C.ar      1 <0>        -0.0943
      4 C4          2.3960    0.0285   -0.0201 C.ar      1 <0>        -0.1025
      5 C5          1.2084   -0.6789   -0.0117 C.ar      1 <0>        -0.0942
      6 C6          0.0021   -0.0041    0.0020 C.ar      1 <0>        -0.1227
      7 C7          3.7112   -0.7071   -0.0376 C.3       1 <0>         0.0994
      8 O1          4.1410   -0.9464    1.3041 O.3       1 <0>        -0.3017
      9 C8          5.3181   -1.6047    1.4665 C.ar      1 <0>         0.1699
     10 C9          6.0462   -2.0062    0.3539 C.ar      1 <0>        -0.2187
     11 C10         7.2408   -2.6743    0.5142 C.ar      1 <0>        -0.0199
     12 C11         7.7194   -2.9470    1.7977 C.ar      1 <0>        -0.1087
     13 C12         6.9844   -2.5411    2.9137 C.ar      1 <0>        -0.0155
     14 C13         5.7930   -1.8692    2.7446 C.ar      1 <0>        -0.1594
     15 C14         8.9990   -3.6632    1.9742 C.2       1 <0>         0.3789
     16 N1          9.4347   -3.9178    3.1735 N.2       1 <0>        -0.3277
     17 N2         10.6490   -4.5952    3.3545 N.pl3     1 <0>        -0.3554
     18 C15        11.5124   -4.6855    2.3179 C.2       1 <0>         0.2368
     19 S1         13.0020   -5.5116    2.4901 S.2       1 <0>        -0.4865
     20 C16        11.1344   -4.0422    1.0043 C.3       1 <0>         0.0900
     21 O2          9.7059   -4.0541    0.8844 O.3       1 <0>        -0.3326
     22 C17        10.9780   -5.1966    4.6493 C.3       1 <0>         0.1256
     23 C18        11.7183   -4.1737    5.5133 C.3       1 <0>        -0.0349
     24 C19        12.0488   -4.7780    6.8143 C.1       1 <0>         0.2083
     25 N3         12.3038   -5.2443    7.8183 N.1       1 <0>        -0.4149
     26 H1         -0.9591    1.9053    0.0259 H         1 <0>         0.1257
     27 H2          1.1563    3.1654    0.0076 H         1 <0>         0.1267
     28 H3          3.3051    1.9634   -0.0196 H         1 <0>         0.1248
     29 H4          1.2231   -1.7588   -0.0176 H         1 <0>         0.1249
     30 H5         -0.9258   -0.5567    0.0082 H         1 <0>         0.1267
     31 H6          3.5884   -1.6586   -0.5549 H         1 <0>         0.0767
     32 H7          4.4573   -0.1052   -0.5563 H         1 <0>         0.0767
     33 H8          5.6754   -1.7950   -0.6382 H         1 <0>         0.1398
     34 H9          7.8060   -2.9869   -0.3514 H         1 <0>         0.1416
     35 H10         7.3510   -2.7500    3.9079 H         1 <0>         0.1480
     36 H11         5.2259   -1.5516    3.6071 H         1 <0>         0.1436
     37 H12        11.4980   -3.0149    0.9822 H         1 <0>         0.1137
     38 H13        11.5735   -4.6060    0.1813 H         1 <0>         0.1647
     39 H14        10.0601   -5.5007    5.1523 H         1 <0>         0.1111
     40 H15        11.6132   -6.0686    4.4940 H         1 <0>         0.1287
     41 H16        12.6362   -3.8696    5.0103 H         1 <0>         0.1188
     42 H17        11.0830   -3.3017    5.6686 H         1 <0>         0.1177
@<TRIPOS>BOND
     1    1    6 ar
     2    1    2 ar
     3    1   26 1
     4    2    3 ar
     5    2   27 1
     6    3    4 ar
     7    3   28 1
     8    4    5 ar
     9    4    7 1
    10    5    6 ar
    11    5   29 1
    12    6   30 1
    13    7    8 1
    14    7   31 1
    15    7   32 1
    16    8    9 1
    17    9   14 ar
    18    9   10 ar
    19   10   11 ar
    20   10   33 1
    21   11   12 ar
    22   11   34 1
    23   12   13 ar
    24   12   15 1
    25   13   14 ar
    26   13   35 1
    27   14   36 1
    28   15   21 1
    29   15   16 2
    30   16   17 1
    31   17   18 1
    32   17   22 1
    33   18   19 2
    34   18   20 1
    35   20   21 1
    36   20   37 1
    37   20   38 1
    38   22   23 1
    39   22   39 1
    40   22   40 1
    41   23   24 1
    42   23   41 1
    43   23   42 1
    44   24   25 3
@<TRIPOS>MOLECULE
CHEMBL16530
   39    41     0     0     0
SMALL
USER_CHARGES

@<TRIPOS>ATOM
      1 C1         -0.0167    1.3781    0.0096 C.ar      1 <0>        -0.1071
      2 C2          1.1709    2.0855    0.0021 C.ar      1 <0>        -0.1230
      3 C3          2.3773    1.4107   -0.0130 C.ar      1 <0>        -0.0943
      4 C4          2.3960    0.0285   -0.0201 C.ar      1 <0>        -0.1018
      5 C5          1.2084   -0.6789   -0.0117 C.ar      1 <0>        -0.0943
      6 C6          0.0021   -0.0041    0.0020 C.ar      1 <0>        -0.1229
      7 C7          3.7112   -0.7071   -0.0376 C.3       1 <0>         0.0994
      8 O1          4.1410   -0.9464    1.3041 O.3       1 <0>        -0.3024
      9 C8          5.3182   -1.6047    1.4665 C.ar      1 <0>         0.1620
     10 C9          6.0463   -2.0064    0.3543 C.ar      1 <0>        -0.2099
     11 C10         7.2413   -2.6746    0.5152 C.ar      1 <0>        -0.0339
     12 C11         7.7190   -2.9474    1.7976 C.ar      1 <0>        -0.0670
     13 C12         6.9846   -2.5422    2.9129 C.ar      1 <0>        -0.0242
     14 C13         5.7933   -1.8693    2.7442 C.ar      1 <0>        -0.1529
     15 C14         9.0006   -3.6646    1.9745 C.2       1 <0>         0.1871
     16 N1          9.6043   -4.0132    3.0837 N.2       1 <0>        -0.2502
     17 N2         10.8051   -4.6839    3.0428 N.am      1 <0>        -0.4383
     18 C15        11.3471   -4.9748    1.8336 C.2       1 <0>         0.5158
     19 O2         12.3866   -5.5532    1.5705 O.2       1 <0>        -0.4330
     20 S1         10.1214   -4.2865    0.7312 S.3       1 <0>        -0.0912
     21 C16        11.4848   -5.0757    4.2800 C.3       1 <0>         0.1342
     22 C17        12.4247   -3.9527    4.7231 C.3       1 <0>        -0.0415
     23 C18        13.1076   -4.3463    5.9663 C.1       1 <0>         0.2054
     24 N3         13.6347   -4.6500    6.9257 N.1       1 <0>        -0.4156
     25 H1         -0.9591    1.9053    0.0259 H         1 <0>         0.1254
     26 H2          1.1563    3.1654    0.0076 H         1 <0>         0.1264
     27 H3          3.3051    1.9634   -0.0196 H         1 <0>         0.1249
     28 H4          1.2231   -1.7588   -0.0176 H         1 <0>         0.1249
     29 H5         -0.9258   -0.5567    0.0082 H         1 <0>         0.1264
     30 H6          3.5884   -1.6586   -0.5549 H         1 <0>         0.0763
     31 H7          4.4573   -0.1052   -0.5563 H         1 <0>         0.0763
     32 H8          5.6757   -1.7953   -0.6379 H         1 <0>         0.1397
     33 H9          7.8068   -2.9870   -0.3502 H         1 <0>         0.1351
     34 H10         7.3513   -2.7515    3.9069 H         1 <0>         0.1448
     35 H11         5.2267   -1.5512    3.6069 H         1 <0>         0.1428
     36 H12        10.7446   -5.2585    5.0590 H         1 <0>         0.1121
     37 H13        12.0611   -5.9843    4.1059 H         1 <0>         0.1102
     38 H14        13.1649   -3.7698    3.9441 H         1 <0>         0.1141
     39 H15        11.8484   -3.0440    4.8972 H         1 <0>         0.1198
@<TRIPOS>BOND
     1    1    6 ar
     2    1    2 ar
     3    1   25 1
     4    2    3 ar
     5    2   26 1
     6    3    4 ar
     7    3   27 1
     8    4    5 ar
     9    4    7 1
    10    5    6 ar
    11    5   28 1
    12    6   29 1
    13    7    8 1
    14    7   30 1
    15    7   31 1
    16    8    9 1
    17    9   14 ar
    18    9   10 ar
    19   10   11 ar
    20   10   32 1
    21   11   12 ar
    22   11   33 1
    23   12   13 ar
    24   12   15 1
    25   13   14 ar
    26   13   34 1
    27   14   35 1
    28   15   20 1
    29   15   16 2
    30   16   17 1
    31   17   18 am
    32   17   21 1
    33   18   19 2
    34   18   20 1
    35   21   22 1
    36   21   36 1
    37   21   37 1
    38   22   23 1
    39   22   38 1
    40   22   39 1
    41   23   24 3
@<TRIPOS>MOLECULE
CHEMBL276076
   37    39     0     0     0
SMALL
USER_CHARGES

@<TRIPOS>ATOM
      1 C1         -0.0184    1.5028    0.0103 C.3       1 <0>        -0.1299
      2 C2          0.0021   -0.0041    0.0020 C.2       1 <0>         0.0289
      3 C3          0.0061   -0.6954   -1.1674 C.2       1 <0>        -0.2311
      4 C4          0.0259   -2.1051   -1.1488 C.2       1 <0>         0.5161
      5 O1          0.0297   -2.7124   -2.2045 O.2       1 <0>        -0.4585
      6 O2          0.0411   -2.7950    0.0025 O.3       1 <0>        -0.2693
      7 C5          0.0380   -2.1693    1.1991 C.ar      1 <0>         0.1866
      8 C6          0.0243   -0.7629    1.2543 C.ar      1 <0>        -0.1857
      9 C7          0.0261   -0.1105    2.4922 C.ar      1 <0>        -0.0148
     10 C8          0.0465   -0.8421    3.6444 C.ar      1 <0>        -0.2265
     11 C9          0.0655   -2.2344    3.5961 C.ar      1 <0>         0.1872
     12 C10         0.0533   -2.8969    2.3791 C.ar      1 <0>        -0.1735
     13 O3          0.0862   -2.9478    4.7507 O.3       1 <0>        -0.2987
     14 C11         0.0871   -2.2057    5.9719 C.3       1 <0>         0.1012
     15 C12         0.1112   -3.1589    7.1389 C.ar      1 <0>        -0.1141
     16 C13        -1.0751   -3.6170    7.6812 C.ar      1 <0>        -0.0628
     17 C14        -1.0543   -4.4914    8.7511 C.ar      1 <0>        -0.1569
     18 C15         0.1554   -4.9088    9.2800 C.ar      1 <0>         0.1136
     19 C16         1.3429   -4.4493    8.7360 C.ar      1 <0>        -0.1569
     20 C17         1.3196   -3.5790    7.6628 C.ar      1 <0>        -0.0629
     21 F1          0.1769   -5.7633   10.3262 F         1 <0>        -0.1351
     22 C18        -0.0109    0.0426   -2.4812 C.3       1 <0>        -0.0971
     23 H1          1.0042    1.8801    0.0026 H         1 <0>         0.0914
     24 H2         -0.5455    1.8639   -0.8728 H         1 <0>         0.0876
     25 H3         -0.5286    1.8543    0.9071 H         1 <0>         0.0792
     26 H4          0.0118    0.9686    2.5359 H         1 <0>         0.1441
     27 H5          0.0483   -0.3384    4.5997 H         1 <0>         0.1418
     28 H6          0.0678   -3.9764    2.3498 H         1 <0>         0.1528
     29 H7          0.9686   -1.5656    6.0074 H         1 <0>         0.0800
     30 H8         -0.8112   -1.5904    6.0238 H         1 <0>         0.0800
     31 H9         -2.0186   -3.2910    7.2688 H         1 <0>         0.1367
     32 H10        -1.9812   -4.8489    9.1748 H         1 <0>         0.1407
     33 H11         2.2870   -4.7740    9.1479 H         1 <0>         0.1407
     34 H12         2.2457   -3.2240    7.2355 H         1 <0>         0.1366
     35 H13         1.0125    0.2352   -2.8031 H         1 <0>         0.0755
     36 H14        -0.5199   -0.5627   -3.2313 H         1 <0>         0.0772
     37 H15        -0.5377    0.9891   -2.3595 H         1 <0>         0.0760
@<TRIPOS>BOND
     1    1    2 1
     2    1   23 1
     3    1   24 1
     4    1   25 1
     5    2    8 1
     6    2    3 2
     7    3    4 1
     8    3   22 1
     9    4    5 2
    10    4    6 1
    11    6    7 1
    12    7   12 ar
    13    7    8 ar
    14    8    9 ar
    15    9   10 ar
    16    9   26 1
    17   10   11 ar
    18   10   27 1
    19   11   12 ar
    20   11   13 1
    21   12   28 1
    22   13   14 1
    23   14   15 1
    24   14   29 1
    25   14   30 1
    26   15   20 ar
    27   15   16 ar
    28   16   17 ar
    29   16   31 1
    30   17   18 ar
    31   17   32 1
    32   18   19 ar
    33   18   21 1
    34   19   20 ar
    35   19   33 1
    36   20   34 1
    37   22   35 1
    38   22   36 1
    39   22   37 1
@<TRIPOS>MOLECULE
CHEMBL266221
   24    26     0     0     0
SMALL
USER_CHARGES

@<TRIPOS>ATOM
      1 C1         -0.0164    1.3596    0.0095 C.ar      1 <0>        -0.1330
      2 C2          1.1689    2.0839    0.0021 C.ar      1 <0>        -0.0455
      3 C3          2.3844    1.4368   -0.0135 C.ar      1 <0>        -0.1420
      4 C4          2.4307    0.0470   -0.0217 C.ar      1 <0>         0.1564
      5 C5          1.2251   -0.6890   -0.0133 C.ar      1 <0>        -0.1217
      6 C6          0.0021   -0.0041    0.0020 C.ar      1 <0>        -0.0507
      7 C7          1.5829   -2.0461   -0.0236 C.2       1 <0>        -0.0337
      8 C8          2.9529   -2.1227   -0.0369 C.2       1 <0>        -0.0429
      9 N1          3.4726   -0.8583   -0.0380 N.pl3     1 <0>        -0.5519
     10 H1          4.4164   -0.6345   -0.0489 H         1 <0>         0.4336
     11 C9          3.6175   -3.4355   -0.0438 C.2       1 <0>         0.3821
     12 N2          2.8998   -4.4690   -0.3660 N.pl3     1 <0>        -0.5398
     13 C10         1.4998   -4.3957   -0.7564 C.3       1 <0>         0.0517
     14 C11         0.7348   -3.2911   -0.0244 C.3       1 <0>        -0.0868
     15 H2         -0.9618    1.8815    0.0259 H         1 <0>         0.1405
     16 H3          1.1370    3.1634    0.0082 H         1 <0>         0.1445
     17 H4          3.3008    2.0082   -0.0197 H         1 <0>         0.1377
     18 H5         -0.9259   -0.5565    0.0083 H         1 <0>         0.1361
     19 H6          4.6625   -3.5360    0.2099 H         1 <0>         0.2198
     20 H7          1.4435   -4.2104   -1.8291 H         1 <0>         0.1234
     21 H8          1.0248   -5.3531   -0.5422 H         1 <0>         0.1373
     22 H9          0.5357   -3.6002    1.0017 H         1 <0>         0.1094
     23 H10        -0.2061   -3.0939   -0.5380 H         1 <0>         0.1303
     24 H11         3.3223   -5.3419   -0.3456 H         1 <0>         0.4449
@<TRIPOS>BOND
     1    1    6 ar
     2    1    2 ar
     3    1   15 1
     4    2    3 ar
     5    2   16 1
     6    3    4 ar
     7    3   17 1
     8    4    9 1
     9    4    5 ar
    10    5    6 ar
    11    5    7 1
    12    6   18 1
    13    7   14 1
    14    7    8 2
    15    8    9 1
    16    8   11 1
    17    9   10 1
    18   11   12 2
    19   11   19 1
    20   12   13 1
    21   12   24 1
    22   13   14 1
    23   13   20 1
    24   13   21 1
    25   14   22 1
    26   14   23 1
@<TRIPOS>MOLECULE
CHEMBL276915
   28    30     0     0     0
SMALL
USER_CHARGES

@<TRIPOS>ATOM
      1 C1         -0.0167    1.3795    0.0096 C.ar      1 <0>        -0.0923
      2 C2          1.1683    2.0940    0.0021 C.ar      1 <0>        -0.1232
      3 C3          2.3774    1.4304   -0.0129 C.ar      1 <0>        -0.0789
      4 C4          2.4038    0.0341   -0.0206 C.ar      1 <0>        -0.0759
      5 C5          1.2040   -0.6806   -0.0130 C.ar      1 <0>        -0.0795
      6 C6          0.0021   -0.0041    0.0020 C.ar      1 <0>        -0.1209
      7 C7          3.6945   -0.6833   -0.0372 C.2       1 <0>         0.2119
      8 C8          3.6864   -2.0428   -0.0500 C.2       1 <0>        -0.3154
      9 C9          4.9135   -2.7479   -0.0665 C.2       1 <0>         0.4230
     10 O1          4.9439   -3.9675   -0.0787 O.2       1 <0>        -0.4683
     11 C10         6.1539   -1.9500   -0.0690 C.ar      1 <0>        -0.2334
     12 C11         7.4083   -2.5603   -0.0853 C.ar      1 <0>        -0.0124
     13 C12         8.5367   -1.7906   -0.0876 C.ar      1 <0>        -0.1723
     14 C13         8.4412   -0.4007   -0.0732 C.ar      1 <0>         0.1743
     15 C14         7.2031    0.2197   -0.0569 C.ar      1 <0>        -0.1715
     16 C15         6.0480   -0.5488   -0.0549 C.ar      1 <0>         0.1661
     17 O2          4.8301    0.0320   -0.0447 O.3       1 <0>        -0.2194
     18 O3          9.5711    0.3517   -0.0747 O.3       1 <0>        -0.4905
     19 H1         -0.9606    1.9042    0.0260 H         1 <0>         0.1309
     20 H2          1.1464    3.1738    0.0078 H         1 <0>         0.1326
     21 H3          3.3015    1.9893   -0.0191 H         1 <0>         0.1348
     22 H4          1.2172   -1.7605   -0.0192 H         1 <0>         0.1363
     23 H5         -0.9265   -0.5555    0.0079 H         1 <0>         0.1348
     24 H6          2.7500   -2.5809   -0.0472 H         1 <0>         0.1633
     25 H7          7.4870   -3.6374   -0.0958 H         1 <0>         0.1487
     26 H8          9.5083   -2.2620   -0.1003 H         1 <0>         0.1440
     27 H9          7.1371    1.2976   -0.0454 H         1 <0>         0.1509
     28 H10         9.8916    0.5784   -0.9585 H         1 <0>         0.4023
@<TRIPOS>BOND
     1    1    6 ar
     2    1    2 ar
     3    1   19 1
     4    2    3 ar
     5    2   20 1
     6    3    4 ar
     7    3   21 1
     8    4    5 ar
     9    4    7 1
    10    5    6 ar
    11    5   22 1
    12    6   23 1
    13    7   17 1
    14    7    8 2
    15    8    9 1
    16    8   24 1
    17    9   10 2
    18    9   11 1
    19   11   16 ar
    20   11   12 ar
    21   12   13 ar
    22   12   25 1
    23   13   14 ar
    24   13   26 1
    25   14   15 ar
    26   14   18 1
    27   15   16 ar
    28   15   27 1
    29   16   17 1
    30   18   28 1
@<TRIPOS>MOLECULE
CHEMBL10316
   28    30     0     0     0
SMALL
USER_CHARGES

@<TRIPOS>ATOM
      1 C1         -0.0167    1.3777    0.0096 C.ar      1 <0>        -0.0954
      2 C2          1.1697    2.0876    0.0021 C.ar      1 <0>        -0.1049
      3 C3          2.3783    1.4178   -0.0143 C.ar      1 <0>        -0.0981
      4 C4          2.4042    0.0310   -0.0230 C.ar      1 <0>         0.0328
      5 C5          1.2117   -0.6826   -0.0129 C.ar      1 <0>         0.0461
      6 C6          0.0021   -0.0041    0.0020 C.ar      1 <0>        -0.1043
      7 O1          1.2145   -2.0436   -0.0133 O.3       1 <0>        -0.2832
      8 C7          2.4336   -2.6847   -0.4041 C.3       1 <0>         0.0320
      9 C8          3.5941   -1.9974    0.3280 C.3       1 <0>         0.0648
     10 O2          3.6022   -0.6147   -0.0433 O.3       1 <0>        -0.2941
     11 C9          4.8980   -2.6386   -0.0718 C.cat     1 <0>         0.5240
     12 N1          5.2779   -2.7414   -1.3237 N.pl3     1 <0>        -0.6144
     13 C10         6.5876   -3.4103   -1.3807 C.3       1 <0>         0.0552
     14 C11         6.9078   -3.6845    0.1034 C.3       1 <0>         0.0574
     15 N2          5.7397   -3.1304    0.8069 N.pl3     1 <0>        -0.6160
     16 H1         -0.9596    1.9040    0.0259 H         1 <0>         0.1440
     17 H2          1.1518    3.1674    0.0087 H         1 <0>         0.1437
     18 H3          3.3037    1.9746   -0.0208 H         1 <0>         0.1411
     19 H4         -0.9261   -0.5562    0.0079 H         1 <0>         0.1448
     20 H5          2.3988   -3.7390   -0.1298 H         1 <0>         0.1382
     21 H6          2.5703   -2.5889   -1.4813 H         1 <0>         0.0891
     22 H7          3.4543   -2.0880    1.4052 H         1 <0>         0.1392
     23 H8          6.5188   -4.3443   -1.9385 H         1 <0>         0.1335
     24 H9          7.3370   -2.7524   -1.8208 H         1 <0>         0.1328
     25 H10         6.9986   -4.7553    0.2860 H         1 <0>         0.1335
     26 H11         7.8168   -3.1634    0.4037 H         1 <0>         0.1329
     27 H12         5.6115   -3.1303    1.7683 H         1 <0>         0.4633
     28 H13         4.7745   -2.4265   -2.0907 H         1 <0>         0.4621
@<TRIPOS>BOND
     1    1    6 ar
     2    1    2 ar
     3    1   16 1
     4    2    3 ar
     5    2   17 1
     6    3    4 ar
     7    3   18 1
     8    4   10 1
     9    4    5 ar
    10    5    6 ar
    11    5    7 1
    12    6   19 1
    13    7    8 1
    14    8    9 1
    15    8   20 1
    16    8   21 1
    17    9   10 1
    18    9   11 1
    19    9   22 1
    20   11   15 1
    21   11   12 2
    22   12   13 1
    23   12   28 1
    24   13   14 1
    25   13   23 1
    26   13   24 1
    27   14   15 1
    28   14   25 1
    29   14   26 1
    30   15   27 1
@<TRIPOS>MOLECULE
CHEMBL10316__1
   28    30     0     0     0
SMALL
USER_CHARGES

@<TRIPOS>ATOM
      1 C1         -0.0167    1.3777    0.0096 C.ar      1 <0>        -0.0954
      2 C2          1.1697    2.0876    0.0021 C.ar      1 <0>        -0.1049
      3 C3          2.3784    1.4177   -0.0116 C.ar      1 <0>        -0.0981
      4 C4          2.4042    0.0310   -0.0183 C.ar      1 <0>         0.0329
      5 C5          1.2117   -0.6826   -0.0132 C.ar      1 <0>         0.0460
      6 C6          0.0021   -0.0041    0.0020 C.ar      1 <0>        -0.1042
      7 O1          1.2143   -2.0436   -0.0274 O.3       1 <0>        -0.2831
      8 C7          2.4406   -2.6886    0.3332 C.3       1 <0>         0.0319
      9 C8          3.5871   -1.9935   -0.4135 C.3       1 <0>         0.0648
     10 O2          3.6024   -0.6148   -0.0277 O.3       1 <0>        -0.2941
     11 C9          4.8983   -2.6388   -0.0455 C.cat     1 <0>         0.5242
     12 N1          5.2968   -2.7648    1.1985 N.pl3     1 <0>        -0.6145
     13 C10         6.6084   -3.4321    1.2232 C.3       1 <0>         0.0552
     14 C11         6.9070   -3.6771   -0.2705 C.3       1 <0>         0.0574
     15 N2          5.7231   -3.1210   -0.9452 N.pl3     1 <0>        -0.6160
     16 H1         -0.9596    1.9040    0.0259 H         1 <0>         0.1440
     17 H2          1.1518    3.1674    0.0066 H         1 <0>         0.1437
     18 H3          3.3037    1.9746   -0.0169 H         1 <0>         0.1411
     19 H4         -0.9261   -0.5562    0.0086 H         1 <0>         0.1448
     20 H5          2.5978   -2.6044    1.4085 H         1 <0>         0.0890
     21 H6          2.4005   -3.7400    0.0483 H         1 <0>         0.1382
     22 H7          3.4268   -2.0725   -1.4887 H         1 <0>         0.1392
     23 H8          7.3631   -2.7813    1.6648 H         1 <0>         0.1328
     24 H9          6.5494   -4.3768    1.7638 H         1 <0>         0.1335
     25 H10         7.8106   -3.1485   -0.5740 H         1 <0>         0.1334
     26 H11         6.9969   -4.7440   -0.4750 H         1 <0>         0.1330
     27 H12         5.5763   -3.1109   -1.9040 H         1 <0>         0.4633
     28 H13         4.8048   -2.4649    1.9787 H         1 <0>         0.4621
@<TRIPOS>BOND
     1    1    6 ar
     2    1    2 ar
     3    1   16 1
     4    2    3 ar
     5    2   17 1
     6    3    4 ar
     7    3   18 1
     8    4   10 1
     9    4    5 ar
    10    5    6 ar
    11    5    7 1
    12    6   19 1
    13    7    8 1
    14    8    9 1
    15    8   20 1
    16    8   21 1
    17    9   10 1
    18    9   11 1
    19    9   22 1
    20   11   15 1
    21   11   12 2
    22   12   13 1
    23   12   28 1
    24   13   14 1
    25   13   23 1
    26   13   24 1
    27   14   15 1
    28   14   25 1
    29   14   26 1
    30   15   27 1
@<TRIPOS>MOLECULE
CHEMBL161907
   29    30     0     0     0
SMALL
USER_CHARGES

@<TRIPOS>ATOM
      1 C1         -0.0168    1.3880    0.0097 C.ar      1 <0>        -0.1875
      2 C2          1.1631    2.1018    0.0022 C.ar      1 <0>        -0.0049
      3 C3          2.3886    1.4311   -0.0130 C.ar      1 <0>        -0.1781
      4 C4          2.4106    0.0167   -0.0208 C.ar      1 <0>        -0.0929
      5 C5          1.2114   -0.6891   -0.0131 C.ar      1 <0>        -0.0863
      6 C6          0.0021   -0.0041    0.0020 C.ar      1 <0>         0.1664
      7 O1         -1.1650   -0.6950    0.0099 O.3       1 <0>        -0.2999
      8 C7         -2.3718    0.0701    0.0259 C.3       1 <0>         0.0583
      9 C8         -3.5749   -0.8751    0.0327 C.3       1 <0>        -0.1277
     10 C9         -4.8670   -0.0559    0.0499 C.3       1 <0>        -0.1649
     11 C10        -6.0701   -1.0011    0.0567 C.3       1 <0>         0.4550
     12 F1         -6.0181   -1.8139    1.1942 F         1 <0>        -0.1814
     13 F2         -7.2515   -0.2520    0.0724 F         1 <0>        -0.1816
     14 F3         -6.0407   -1.8016   -1.0902 F         1 <0>        -0.1814
     15 C11         3.8130   -0.4500   -0.0366 C.2       1 <0>         0.3682
     16 O2          4.1853   -1.6047   -0.0469 O.2       1 <0>        -0.3588
     17 C12         4.6883    0.7614   -0.0385 C.2       1 <0>         0.2965
     18 O3          5.8962    0.7823   -0.0503 O.2       1 <0>        -0.3196
     19 C13         3.7721    1.9414   -0.0235 C.2       1 <0>         0.3715
     20 O4          4.1060    3.1085   -0.0204 O.2       1 <0>        -0.3705
     21 H1         -0.9611    1.9119    0.0260 H         1 <0>         0.1487
     22 H2          1.1398    3.1815    0.0079 H         1 <0>         0.1489
     23 H3          1.2202   -1.7690   -0.0190 H         1 <0>         0.1540
     24 H4         -2.3947    0.6939    0.9195 H         1 <0>         0.0756
     25 H5         -2.4123    0.7034   -0.8603 H         1 <0>         0.0756
     26 H6         -3.5520   -1.4988   -0.8609 H         1 <0>         0.0930
     27 H7         -3.5344   -1.5083    0.9190 H         1 <0>         0.0929
     28 H8         -4.8899    0.5679    0.9435 H         1 <0>         0.1155
     29 H9         -4.9075    0.5774   -0.8363 H         1 <0>         0.1155
@<TRIPOS>BOND
     1    1    6 ar
     2    1    2 ar
     3    1   21 1
     4    2    3 ar
     5    2   22 1
     6    3   19 1
     7    3    4 ar
     8    4    5 ar
     9    4   15 1
    10    5    6 ar
    11    5   23 1
    12    6    7 1
    13    7    8 1
    14    8    9 1
    15    8   24 1
    16    8   25 1
    17    9   10 1
    18    9   26 1
    19    9   27 1
    20   10   11 1
    21   10   28 1
    22   10   29 1
    23   11   12 1
    24   11   13 1
    25   11   14 1
    26   15   16 2
    27   15   17 1
    28   17   18 2
    29   17   19 1
    30   19   20 2
@<TRIPOS>MOLECULE
CHEMBL55674
   35    38     0     0     0
SMALL
USER_CHARGES

@<TRIPOS>ATOM
      1 C1         -0.0187    1.5258    0.0104 C.3       1 <0>        -0.1728
      2 C2          0.0021   -0.0041    0.0020 C.3       1 <0>         0.1214
      3 N1         -1.3723   -0.5112    0.0124 N.pl3     1 <0>        -0.1309
      4 N2         -2.0633   -0.7700    1.0690 N.2       1 <0>        -0.2872
      5 C3         -3.2460   -1.2049    0.6809 C.2       1 <0>         0.1982
      6 N3         -3.2372   -1.1967   -0.6598 N.2       1 <0>        -0.2669
      7 N4         -2.0810   -0.7628   -1.0324 N.2       1 <0>        -0.0525
      8 C4         -4.3680   -1.6228    1.5573 C.ar      1 <0>         0.0564
      9 C5         -4.2205   -1.5682    2.9461 C.ar      1 <0>        -0.1141
     10 C6         -5.2493   -1.9463    3.7603 C.ar      1 <0>        -0.0270
     11 C7         -6.4492   -2.3893    3.2030 C.ar      1 <0>        -0.2116
     12 C8         -6.6099   -2.4577    1.8087 C.ar      1 <0>         0.1618
     13 C9         -5.5592   -2.0601    0.9909 C.ar      1 <0>        -0.1045
     14 O1         -7.7585   -2.9014    1.2606 O.3       1 <0>        -0.2218
     15 C10        -8.8997   -2.9949    1.9732 C.ar      1 <0>         0.1508
     16 C11       -10.1192   -3.1311    1.3165 C.ar      1 <0>        -0.1246
     17 C12       -11.2879   -3.2325    2.0390 C.ar      1 <0>        -0.0781
     18 C13       -11.2686   -3.2022    3.4300 C.ar      1 <0>         0.0777
     19 C14       -10.0680   -3.0655    4.1019 C.ar      1 <0>        -0.0549
     20 C15        -8.8830   -2.9580    3.3761 C.ar      1 <0>        -0.2098
     21 C16        -7.5825   -2.7939    4.0609 C.2       1 <0>         0.4400
     22 O2         -7.4536   -2.9802    5.2569 O.2       1 <0>        -0.4375
     23 O3        -12.4305   -3.3066    4.1284 O.3       1 <0>        -0.4912
     24 H1          1.0039    1.9031    0.0027 H         1 <0>         0.0957
     25 H2         -0.5459    1.8868   -0.8726 H         1 <0>         0.0714
     26 H3         -0.5289    1.8773    0.9072 H         1 <0>         0.0709
     27 H4          0.5123   -0.3556   -0.8948 H         1 <0>         0.1221
     28 H5          0.5293   -0.3651    0.8851 H         1 <0>         0.1197
     29 H6         -3.2908   -1.2259    3.3762 H         1 <0>         0.1474
     30 H7         -5.1344   -1.9029    4.8333 H         1 <0>         0.1508
     31 H8         -5.6667   -2.0947   -0.0832 H         1 <0>         0.1581
     32 H9        -10.1495   -3.1570    0.2372 H         1 <0>         0.1511
     33 H10       -12.2292   -3.3371    1.5200 H         1 <0>         0.1484
     34 H11       -10.0487   -3.0418    5.1814 H         1 <0>         0.1489
     35 H12       -12.6769   -4.2154    4.3483 H         1 <0>         0.3946
@<TRIPOS>BOND
     1    1    2 1
     2    1   24 1
     3    1   25 1
     4    1   26 1
     5    2    3 1
     6    2   27 1
     7    2   28 1
     8    3    7 1
     9    3    4 1
    10    4    5 2
    11    5    6 1
    12    5    8 1
    13    6    7 2
    14    8   13 ar
    15    8    9 ar
    16    9   10 ar
    17    9   29 1
    18   10   11 ar
    19   10   30 1
    20   11   21 1
    21   11   12 ar
    22   12   13 ar
    23   12   14 1
    24   13   31 1
    25   14   15 1
    26   15   20 ar
    27   15   16 ar
    28   16   17 ar
    29   16   32 1
    30   17   18 ar
    31   17   33 1
    32   18   19 ar
    33   18   23 1
    34   19   20 ar
    35   19   34 1
    36   20   21 1
    37   21   22 2
    38   23   35 1
@<TRIPOS>MOLECULE
CHEMBL394942
   31    34     0     0     0
SMALL
USER_CHARGES

@<TRIPOS>ATOM
      1 C1         -0.0167    1.3822    0.0096 C.ar      1 <0>        -0.0804
      2 C2          1.1644    2.0984    0.0022 C.ar      1 <0>        -0.1030
      3 C3          2.3815    1.4367   -0.0135 C.ar      1 <0>        -0.0354
      4 C4          2.4146    0.0469   -0.0213 C.ar      1 <0>        -0.1545
      5 C5          1.2129   -0.6831   -0.0132 C.ar      1 <0>        -0.0221
      6 C6          0.0021   -0.0041    0.0020 C.ar      1 <0>        -0.0673
      7 C7          1.5351   -2.1318   -0.0242 C.ar      1 <0>         0.0801
      8 C8          2.9333   -2.2818   -0.0389 C.ar      1 <0>         0.0925
      9 N1          3.4485   -3.5003   -0.0506 N.ar      1 <0>        -0.4023
     10 C9          2.6307   -4.5506   -0.0481 C.ar      1 <0>         0.2945
     11 N2          1.3129   -4.3896   -0.0341 N.ar      1 <0>        -0.2341
     12 N3          0.7735   -3.2205   -0.0221 N.ar      1 <0>        -0.1546
     13 C10         3.1994   -5.9193   -0.0616 C.ar      1 <0>        -0.0489
     14 C11         4.5818   -6.1028   -0.0710 C.ar      1 <0>        -0.0180
     15 C12         5.1053   -7.3793   -0.0831 C.ar      1 <0>        -0.1198
     16 C13         4.2617   -8.4760   -0.0863 C.ar      1 <0>        -0.0282
     17 C14         2.8898   -8.3001   -0.0775 C.ar      1 <0>        -0.0551
     18 C15         2.3545   -7.0282   -0.0591 C.ar      1 <0>        -0.0059
     19 N4          1.9940   -9.4785   -0.0821 N.pl3     1 <0>         0.0320
     20 O1          2.4617  -10.5933   -0.0935 O.2       1 <0>        -0.1505
     21 O2          0.7947   -9.3262   -0.0744 O.3       1 <0>        -0.1481
     22 C16         3.5356   -0.9223   -0.0376 C.2       1 <0>         0.4638
     23 O3          4.7196   -0.6570   -0.0486 O.2       1 <0>        -0.3695
     24 H1         -0.9612    1.9057    0.0260 H         1 <0>         0.1456
     25 H2          1.1390    3.1781    0.0083 H         1 <0>         0.1462
     26 H3          3.3031    1.9997   -0.0199 H         1 <0>         0.1459
     27 H4         -0.9261   -0.5563    0.0083 H         1 <0>         0.1457
     28 H5          5.2412   -5.2476   -0.0692 H         1 <0>         0.1591
     29 H6          6.1757   -7.5227   -0.0904 H         1 <0>         0.1599
     30 H7          4.6761   -9.4733   -0.0962 H         1 <0>         0.1622
     31 H8          1.2831   -6.8921   -0.0474 H         1 <0>         0.1702
@<TRIPOS>BOND
     1    1    6 ar
     2    1    2 ar
     3    1   24 1
     4    2    3 ar
     5    2   25 1
     6    3    4 ar
     7    3   26 1
     8    4   22 1
     9    4    5 ar
    10    5    6 ar
    11    5    7 1
    12    6   27 1
    13    7   12 ar
    14    7    8 ar
    15    8    9 ar
    16    8   22 1
    17    9   10 ar
    18   10   11 ar
    19   10   13 1
    20   11   12 ar
    21   13   18 ar
    22   13   14 ar
    23   14   15 ar
    24   14   28 1
    25   15   16 ar
    26   15   29 1
    27   16   17 ar
    28   16   30 1
    29   17   18 ar
    30   17   19 1
    31   18   31 1
    32   19   20 2
    33   19   21 1
    34   22   23 2
@<TRIPOS>MOLECULE
CHEMBL243733
   46    48     0     0     0
SMALL
USER_CHARGES

@<TRIPOS>ATOM
      1 C1          0.0079    1.5259   -0.0087 C.3       1 <0>        -0.1824
      2 C2          0.0021   -0.0041    0.0020 C.3       1 <0>         0.0028
      3 H1          0.4191   -0.3755   -0.9341 H         1 <0>         0.1659
      4 C3         -1.4129   -0.5000    0.1534 C.2       1 <0>         0.5124
      5 O1         -1.7153   -1.1895    1.1042 O.2       1 <0>        -0.5250
      6 N1         -2.3423   -0.1773   -0.7678 N.am      1 <0>        -0.8233
      7 N2          0.8138   -0.4890    1.1262 N.4       1 <0>        -0.3689
      8 C4          2.1571    0.1062    1.0561 C.3       1 <0>        -0.0100
      9 C5          2.8772   -0.1583    2.3790 C.3       1 <0>        -0.1039
     10 C6          2.7947   -1.6243    2.7205 C.ar      1 <0>        -0.0499
     11 C7          3.6584   -2.1323    3.6771 C.ar      1 <0>        -0.1418
     12 C8          3.6103   -3.4741    4.0192 C.ar      1 <0>         0.1612
     13 C9          2.6915   -4.3092    3.3997 C.ar      1 <0>        -0.1987
     14 C10         1.8340   -3.7995    2.4472 C.ar      1 <0>        -0.0458
     15 C11         1.8841   -2.4562    2.1034 C.ar      1 <0>        -0.1698
     16 C12         0.9338   -1.9477    1.0513 C.3       1 <0>         0.0431
     17 O2          4.4595   -3.9701    4.9571 O.3       1 <0>        -0.3003
     18 C13         4.3517   -5.3629    5.2581 C.3       1 <0>         0.1012
     19 C14         5.3649   -5.7290    6.3119 C.ar      1 <0>        -0.0779
     20 C15         6.6320   -6.1384    5.9396 C.ar      1 <0>        -0.1045
     21 C16         7.5623   -6.4745    6.9051 C.ar      1 <0>        -0.0900
     22 C17         7.2267   -6.4021    8.2439 C.ar      1 <0>        -0.1373
     23 C18         5.9583   -5.9923    8.6178 C.ar      1 <0>         0.0997
     24 C19         5.0290   -5.6500    7.6499 C.ar      1 <0>        -0.1298
     25 F1          5.6290   -5.9217    9.9262 F         1 <0>        -0.1337
     26 H2          1.0058    1.8837   -0.2621 H         1 <0>         0.1020
     27 H3         -0.7064    1.8868   -0.7488 H         1 <0>         0.1109
     28 H4         -0.2718    1.8972    0.9773 H         1 <0>         0.0910
     29 H5         -2.1004    0.3741   -1.5282 H         1 <0>         0.4130
     30 H6         -3.2530   -0.4966   -0.6703 H         1 <0>         0.4246
     31 H7          2.7162   -0.3477    0.2380 H         1 <0>         0.1364
     32 H8          2.0733    1.1807    0.8936 H         1 <0>         0.1430
     33 H9          3.9233    0.1340    2.2869 H         1 <0>         0.1284
     34 H10         2.4071    0.4252    3.1705 H         1 <0>         0.1070
     35 H11         4.3723   -1.4799    4.1579 H         1 <0>         0.1431
     36 H12         2.6481   -5.3558    3.6626 H         1 <0>         0.1418
     37 H13         1.1192   -4.4503    1.9656 H         1 <0>         0.1372
     38 H14        -0.0471   -2.3974    1.2057 H         1 <0>         0.1510
     39 H15         1.3055   -2.2276    0.0656 H         1 <0>         0.1314
     40 H16         3.3491   -5.5782    5.6277 H         1 <0>         0.0798
     41 H17         4.5392   -5.9452    4.3559 H         1 <0>         0.0819
     42 H18         6.8949   -6.1959    4.8937 H         1 <0>         0.1327
     43 H19         8.5518   -6.7941    6.6131 H         1 <0>         0.1404
     44 H20         7.9536   -6.6654    8.9981 H         1 <0>         0.1422
     45 H21         4.0406   -5.3260    7.9405 H         1 <0>         0.1377
     46 H22         0.3737   -0.2307    1.9967 H         1 <0>         0.4310
@<TRIPOS>BOND
     1    1    2 1
     2    1   26 1
     3    1   27 1
     4    1   28 1
     5    2    3 1
     6    2    4 1
     7    2    7 1
     8    4    5 2
     9    4    6 am
    10    6   29 1
    11    6   30 1
    12    7   16 1
    13    7    8 1
    14    7   46 1
    15    8    9 1
    16    8   31 1
    17    8   32 1
    18    9   10 1
    19    9   33 1
    20    9   34 1
    21   10   15 ar
    22   10   11 ar
    23   11   12 ar
    24   11   35 1
    25   12   13 ar
    26   12   17 1
    27   13   14 ar
    28   13   36 1
    29   14   15 ar
    30   14   37 1
    31   15   16 1
    32   16   38 1
    33   16   39 1
    34   17   18 1
    35   18   19 1
    36   18   40 1
    37   18   41 1
    38   19   24 ar
    39   19   20 ar
    40   20   21 ar
    41   20   42 1
    42   21   22 ar
    43   21   43 1
    44   22   23 ar
    45   22   44 1
    46   23   24 ar
    47   23   25 1
    48   24   45 1
@<TRIPOS>MOLECULE
CHEMBL243733__1
   45    47     0     0     0
SMALL
USER_CHARGES

@<TRIPOS>ATOM
      1 C1         -0.8988   -1.2361   -0.1051 C.3       1 <0>        -0.1846
      2 C2          0.0021   -0.0041    0.0020 C.3       1 <0>         0.0610
      3 H1         -0.6136    0.8951    0.0277 H         1 <0>         0.1081
      4 C3          0.9219    0.0508   -1.1904 C.2       1 <0>         0.5245
      5 O1          2.1025   -0.1931   -1.0573 O.2       1 <0>        -0.5228
      6 N1          0.4327    0.3710   -2.4047 N.am      1 <0>        -0.8566
      7 N2          0.8001   -0.0864    1.2326 N.3       1 <0>        -0.5112
      8 C4          1.4574   -1.3979    1.3481 C.3       1 <0>         0.0488
      9 C5          2.5420   -1.3043    2.4217 C.3       1 <0>        -0.0760
     10 C6          1.9699   -0.7030    3.6799 C.ar      1 <0>        -0.0234
     11 C7          2.6731   -0.8579    4.8641 C.ar      1 <0>        -0.1531
     12 C8          2.1849   -0.3179    6.0427 C.ar      1 <0>         0.1312
     13 C9          0.9865    0.3816    6.0341 C.ar      1 <0>        -0.2106
     14 C10         0.2892    0.5325    4.8539 C.ar      1 <0>        -0.0730
     15 C11         0.7773   -0.0112    3.6740 C.ar      1 <0>        -0.1167
     16 C12        -0.0284    0.1722    2.4144 C.3       1 <0>         0.0985
     17 O2          2.8763   -0.4729    7.2023 O.3       1 <0>        -0.3083
     18 C13         2.3113    0.1113    8.3777 C.3       1 <0>         0.1019
     19 C14         3.2103   -0.1612    9.5561 C.ar      1 <0>        -0.0685
     20 C15         3.0310   -1.3049   10.3120 C.ar      1 <0>        -0.1055
     21 C16         3.8548   -1.5562   11.3932 C.ar      1 <0>        -0.0921
     22 C17         4.8585   -0.6639   11.7200 C.ar      1 <0>        -0.1431
     23 C18         5.0389    0.4816   10.9639 C.ar      1 <0>         0.0970
     24 C19         4.2169    0.7292    9.8773 C.ar      1 <0>        -0.1300
     25 F1          6.0194    1.3546   11.2827 F         1 <0>        -0.1366
     26 H2         -1.5641   -1.2758    0.7574 H         1 <0>         0.0711
     27 H3         -1.4909   -1.1750   -1.0182 H         1 <0>         0.0696
     28 H4         -0.2831   -2.1352   -0.1307 H         1 <0>         0.0684
     29 H5         -0.5115    0.5661   -2.5112 H         1 <0>         0.4006
     30 H6          1.0247    0.4063   -3.1723 H         1 <0>         0.4038
     31 H7          0.7235   -2.1515    1.6337 H         1 <0>         0.0383
     32 H8          1.9095   -1.6663    0.3933 H         1 <0>         0.0987
     33 H9          2.9235   -2.3021    2.6385 H         1 <0>         0.0810
     34 H10         3.3569   -0.6777    2.0592 H         1 <0>         0.0906
     35 H11         3.6058   -1.4024    4.8682 H         1 <0>         0.1305
     36 H12         0.6008    0.8063    6.9491 H         1 <0>         0.1280
     37 H13        -0.6434    1.0772    4.8479 H         1 <0>         0.1251
     38 H14        -0.4044    1.1945    2.3735 H         1 <0>         0.0869
     39 H15        -0.8703   -0.5201    2.4220 H         1 <0>         0.0498
     40 H16         2.2129    1.1877    8.2370 H         1 <0>         0.0747
     41 H17         1.3285   -0.3223    8.5625 H         1 <0>         0.0764
     42 H18         2.2466   -2.0023   10.0578 H         1 <0>         0.1326
     43 H19         3.7139   -2.4499   11.9829 H         1 <0>         0.1378
     44 H20         5.5016   -0.8601   12.5652 H         1 <0>         0.1388
     45 H21         4.3595    1.6203    9.2840 H         1 <0>         0.1380
@<TRIPOS>BOND
     1    1    2 1
     2    1   26 1
     3    1   27 1
     4    1   28 1
     5    2    3 1
     6    2    4 1
     7    2    7 1
     8    4    5 2
     9    4    6 am
    10    6   29 1
    11    6   30 1
    12    7   16 1
    13    7    8 1
    14    8    9 1
    15    8   31 1
    16    8   32 1
    17    9   10 1
    18    9   33 1
    19    9   34 1
    20   10   15 ar
    21   10   11 ar
    22   11   12 ar
    23   11   35 1
    24   12   13 ar
    25   12   17 1
    26   13   14 ar
    27   13   36 1
    28   14   15 ar
    29   14   37 1
    30   15   16 1
    31   16   38 1
    32   16   39 1
    33   17   18 1
    34   18   19 1
    35   18   40 1
    36   18   41 1
    37   19   24 ar
    38   19   20 ar
    39   20   21 ar
    40   20   42 1
    41   21   22 ar
    42   21   43 1
    43   22   23 ar
    44   22   44 1
    45   23   24 ar
    46   23   25 1
    47   24   45 1
@<TRIPOS>MOLECULE
CHEMBL269074
   26    28     0     0     0
SMALL
USER_CHARGES

@<TRIPOS>ATOM
      1 C1         -0.0164    1.3616    0.0095 C.ar      1 <0>        -0.1237
      2 C2          1.1694    2.0835    0.0021 C.ar      1 <0>        -0.0855
      3 C3          2.3848    1.4356   -0.0139 C.ar      1 <0>        -0.1208
      4 C4          2.4282    0.0456   -0.0221 C.ar      1 <0>         0.0984
      5 C5          1.2225   -0.6835   -0.0135 C.ar      1 <0>        -0.0822
      6 C6          0.0021   -0.0041    0.0020 C.ar      1 <0>        -0.0815
      7 C7          1.6083   -2.0889   -0.0244 C.2       1 <0>        -0.2353
      8 C8          2.9566   -2.1352   -0.0377 C.2       1 <0>         0.0871
      9 N1          3.4602   -0.8688   -0.0382 N.pl3     1 <0>        -0.5687
     10 H1          4.4038   -0.6442   -0.0482 H         1 <0>         0.4252
     11 C9          3.7239   -3.4383   -0.0456 C.3       1 <0>        -0.0847
     12 C10         2.7528   -4.5558    0.3584 C.3       1 <0>         0.0032
     13 N2          1.5303   -4.4666   -0.4510 N.4       1 <0>        -0.5069
     14 C11         0.7259   -3.3095   -0.0249 C.3       1 <0>         0.0878
     15 H2         -0.9614    1.8842    0.0259 H         1 <0>         0.1330
     16 H3          1.1386    3.1630    0.0085 H         1 <0>         0.1365
     17 H4          3.3020    2.0058   -0.0203 H         1 <0>         0.1292
     18 H5         -0.9252   -0.5577    0.0084 H         1 <0>         0.1264
     19 H6          4.1136   -3.6312   -1.0451 H         1 <0>         0.1118
     20 H7          4.5458   -3.3872    0.6685 H         1 <0>         0.1264
     21 H8          3.2260   -5.5240    0.1950 H         1 <0>         0.1448
     22 H9          2.4979   -4.4509    1.4130 H         1 <0>         0.1367
     23 H10         1.7794   -4.3614   -1.4231 H         1 <0>         0.4310
     24 H11         0.3390   -3.4822    0.9794 H         1 <0>         0.1362
     25 H12        -0.1015   -3.1630   -0.7192 H         1 <0>         0.1387
     26 H13         0.9898   -5.3108   -0.3351 H         1 <0>         0.4368
@<TRIPOS>BOND
     1    1    6 ar
     2    1    2 ar
     3    1   15 1
     4    2    3 ar
     5    2   16 1
     6    3    4 ar
     7    3   17 1
     8    4    9 1
     9    4    5 ar
    10    5    6 ar
    11    5    7 1
    12    6   18 1
    13    7   14 1
    14    7    8 2
    15    8    9 1
    16    8   11 1
    17    9   10 1
    18   11   12 1
    19   11   19 1
    20   11   20 1
    21   12   13 1
    22   12   21 1
    23   12   22 1
    24   13   14 1
    25   13   23 1
    26   13   26 1
    27   14   24 1
    28   14   25 1
@<TRIPOS>MOLECULE
CHEMBL269074__1
   25    27     0     0     0
SMALL
USER_CHARGES

@<TRIPOS>ATOM
      1 C1         -0.0164    1.3616    0.0095 C.ar      1 <0>        -0.1434
      2 C2          1.1695    2.0834    0.0021 C.ar      1 <0>        -0.0996
      3 C3          2.3849    1.4355   -0.0133 C.ar      1 <0>        -0.1290
      4 C4          2.4283    0.0454   -0.0215 C.ar      1 <0>         0.0926
      5 C5          1.2226   -0.6833   -0.0136 C.ar      1 <0>        -0.0925
      6 C6          0.0021   -0.0041    0.0020 C.ar      1 <0>        -0.0725
      7 C7          1.6081   -2.0889   -0.0255 C.2       1 <0>        -0.2105
      8 C8          2.9559   -2.1363   -0.0386 C.2       1 <0>         0.0756
      9 N1          3.4598   -0.8692   -0.0373 N.pl3     1 <0>        -0.5863
     10 H1          4.4035   -0.6448   -0.0462 H         1 <0>         0.4138
     11 C9          3.7278   -3.4364   -0.0498 C.3       1 <0>        -0.0960
     12 C10         2.7672   -4.5603    0.3602 C.3       1 <0>         0.0628
     13 N2          1.5326   -4.4689   -0.4317 N.3       1 <0>        -0.6828
     14 C11         0.7223   -3.3075   -0.0264 C.3       1 <0>         0.1310
     15 H2         -0.9614    1.8843    0.0259 H         1 <0>         0.1237
     16 H3          1.1387    3.1629    0.0080 H         1 <0>         0.1262
     17 H4          3.3021    2.0057   -0.0192 H         1 <0>         0.1192
     18 H5         -0.9252   -0.5578    0.0078 H         1 <0>         0.1223
     19 H6          4.1129   -3.6278   -1.0514 H         1 <0>         0.0835
     20 H7          4.5540   -3.3807    0.6590 H         1 <0>         0.0839
     21 H8          3.2414   -5.5256    0.1827 H         1 <0>         0.0882
     22 H9          2.5271   -4.4640    1.4190 H         1 <0>         0.0788
     23 H10         1.7377   -4.4397   -1.4192 H         1 <0>         0.3445
     24 H11         0.3212   -3.4708    0.9739 H         1 <0>         0.0829
     25 H12        -0.0961   -3.1662   -0.7322 H         1 <0>         0.0835
@<TRIPOS>BOND
     1    1    6 ar
     2    1    2 ar
     3    1   15 1
     4    2    3 ar
     5    2   16 1
     6    3    4 ar
     7    3   17 1
     8    4    9 1
     9    4    5 ar
    10    5    6 ar
    11    5    7 1
    12    6   18 1
    13    7   14 1
    14    7    8 2
    15    8    9 1
    16    8   11 1
    17    9   10 1
    18   11   12 1
    19   11   19 1
    20   11   20 1
    21   12   13 1
    22   12   21 1
    23   12   22 1
    24   13   14 1
    25   13   23 1
    26   14   24 1
    27   14   25 1
@<TRIPOS>MOLECULE
CHEMBL7002
   46    48     0     0     0
SMALL
USER_CHARGES

@<TRIPOS>ATOM
      1 C1         -0.0187    1.5258    0.0104 C.3       1 <0>        -0.1446
      2 C2          0.0021   -0.0041    0.0020 C.3       1 <0>        -0.0555
      3 C3          0.7182   -0.4975   -1.2568 C.3       1 <0>        -0.1069
      4 C4          2.1536    0.0321   -1.2676 C.3       1 <0>        -0.1225
      5 C5          2.8936   -0.4747   -0.0281 C.3       1 <0>        -0.1213
      6 C6          2.1775    0.0187    1.2307 C.3       1 <0>        -0.1197
      7 C7          0.7421   -0.5109    1.2415 C.3       1 <0>        -0.1085
      8 C8         -1.4333   -0.5336    0.0129 C.3       1 <0>         0.0685
      9 O1         -2.1245   -0.0603   -1.1448 O.3       1 <0>        -0.3069
     10 C9         -3.4207   -0.4423   -1.2887 C.ar      1 <0>         0.1397
     11 C10        -4.0169   -1.2513   -0.3323 C.ar      1 <0>        -0.2101
     12 C11        -5.3349   -1.6378   -0.4806 C.ar      1 <0>        -0.0663
     13 C12        -6.0595   -1.2194   -1.5814 C.ar      1 <0>        -0.1392
     14 C13        -5.4675   -0.4135   -2.5362 C.ar      1 <0>        -0.0600
     15 C14        -4.1517   -0.0191   -2.3893 C.ar      1 <0>        -0.1509
     16 C15        -7.4970   -1.6430   -1.7409 C.3       1 <0>        -0.0489
     17 C16        -8.4092   -0.6146   -1.0692 C.3       1 <0>        -0.0717
     18 C17        -9.8777   -0.9612   -1.2712 C.2       1 <0>         0.5302
     19 O2        -10.3672   -1.9837   -0.8414 O.2       1 <0>        -0.4585
     20 N1        -10.5826   -0.0699   -1.9474 N.am      1 <0>        -0.6901
     21 C18       -10.0631    1.0723   -2.4343 C.2       1 <0>         0.5599
     22 O3        -10.6293    1.9453   -3.0631 O.2       1 <0>        -0.4172
     23 S1         -8.3471    1.0064   -1.9404 S.3       1 <0>        -0.1396
     24 H1          1.0039    1.9031    0.0027 H         1 <0>         0.0643
     25 H2         -0.5459    1.8868   -0.8726 H         1 <0>         0.0628
     26 H3         -0.5289    1.8773    0.9072 H         1 <0>         0.0527
     27 H4          0.7330   -1.5874   -1.2628 H         1 <0>         0.0602
     28 H5          0.1910   -0.1364   -2.1398 H         1 <0>         0.0705
     29 H6          2.6638   -0.3194   -2.1644 H         1 <0>         0.0618
     30 H7          2.1388    1.1220   -1.2617 H         1 <0>         0.0659
     31 H8          2.9084   -1.5646   -0.0341 H         1 <0>         0.0609
     32 H9          3.9162   -0.0975   -0.0359 H         1 <0>         0.0616
     33 H10         2.7046   -0.3424    2.1137 H         1 <0>         0.0635
     34 H11         2.1627    1.1086    1.2367 H         1 <0>         0.0670
     35 H12         0.2319   -0.1594    2.1383 H         1 <0>         0.0646
     36 H13         0.7568   -1.6008    1.2356 H         1 <0>         0.0647
     37 H14        -1.4185   -1.6235    0.0069 H         1 <0>         0.0621
     38 H15        -1.9435   -0.1821    0.9097 H         1 <0>         0.0627
     39 H16        -3.4511   -1.5789    0.5273 H         1 <0>         0.1282
     40 H17        -5.7995   -2.2676    0.2636 H         1 <0>         0.1270
     41 H18        -6.0355   -0.0883   -3.3952 H         1 <0>         0.1343
     42 H19        -3.6910    0.6140   -3.1331 H         1 <0>         0.1325
     43 H20        -7.7412   -1.7076   -2.8012 H         1 <0>         0.0896
     44 H21        -7.6425   -2.6174   -1.2745 H         1 <0>         0.1048
     45 H22        -8.1683   -0.5061   -0.0117 H         1 <0>         0.1607
     46 H23       -11.5235   -0.2488   -2.1008 H         1 <0>         0.4181
@<TRIPOS>BOND
     1    1    2 1
     2    1   24 1
     3    1   25 1
     4    1   26 1
     5    2    7 1
     6    2    3 1
     7    2    8 1
     8    3    4 1
     9    3   27 1
    10    3   28 1
    11    4    5 1
    12    4   29 1
    13    4   30 1
    14    5    6 1
    15    5   31 1
    16    5   32 1
    17    6    7 1
    18    6   33 1
    19    6   34 1
    20    7   35 1
    21    7   36 1
    22    8    9 1
    23    8   37 1
    24    8   38 1
    25    9   10 1
    26   10   15 ar
    27   10   11 ar
    28   11   12 ar
    29   11   39 1
    30   12   13 ar
    31   12   40 1
    32   13   14 ar
    33   13   16 1
    34   14   15 ar
    35   14   41 1
    36   15   42 1
    37   16   17 1
    38   16   43 1
    39   16   44 1
    40   17   23 1
    41   17   18 1
    42   17   45 1
    43   18   19 2
    44   18   20 am
    45   20   21 am
    46   20   46 1
    47   21   22 2
    48   21   23 1
@<TRIPOS>MOLECULE
CHEMBL7002__1
   46    48     0     0     0
SMALL
USER_CHARGES

@<TRIPOS>ATOM
      1 C1         -0.0187    1.5258    0.0104 C.3       1 <0>        -0.1445
      2 C2          0.0021   -0.0041    0.0020 C.3       1 <0>        -0.0555
      3 C3          0.7182   -0.4975   -1.2568 C.3       1 <0>        -0.1068
      4 C4          2.1536    0.0321   -1.2676 C.3       1 <0>        -0.1225
      5 C5          2.8936   -0.4747   -0.0281 C.3       1 <0>        -0.1213
      6 C6          2.1775    0.0187    1.2307 C.3       1 <0>        -0.1196
      7 C7          0.7421   -0.5109    1.2415 C.3       1 <0>        -0.1087
      8 C8         -1.4333   -0.5336    0.0129 C.3       1 <0>         0.0683
      9 O1         -2.1245   -0.0603   -1.1448 O.3       1 <0>        -0.3072
     10 C9         -3.4207   -0.4423   -1.2887 C.ar      1 <0>         0.1397
     11 C10        -4.0169   -1.2513   -0.3323 C.ar      1 <0>        -0.2083
     12 C11        -5.3349   -1.6378   -0.4806 C.ar      1 <0>        -0.0587
     13 C12        -6.0595   -1.2194   -1.5814 C.ar      1 <0>        -0.1396
     14 C13        -5.4675   -0.4135   -2.5362 C.ar      1 <0>        -0.0672
     15 C14        -4.1517   -0.0191   -2.3893 C.ar      1 <0>        -0.1528
     16 C15        -7.4970   -1.6430   -1.7409 C.3       1 <0>        -0.0489
     17 C16        -8.4092   -0.6146   -1.0692 C.3       1 <0>        -0.0711
     18 C17        -9.8691   -1.0404   -1.1383 C.2       1 <0>         0.5301
     19 O2        -10.4542   -1.1803   -2.1909 O.2       1 <0>        -0.4579
     20 N1        -10.4549   -1.2475    0.0290 N.am      1 <0>        -0.6901
     21 C18        -9.8277   -1.0995    1.2106 C.2       1 <0>         0.5602
     22 O3        -10.2810   -1.2666    2.3262 O.2       1 <0>        -0.4175
     23 S1         -8.1729   -0.6008    0.7569 S.3       1 <0>        -0.1419
     24 H1          1.0039    1.9031    0.0027 H         1 <0>         0.0642
     25 H2         -0.5459    1.8868   -0.8726 H         1 <0>         0.0625
     26 H3         -0.5289    1.8773    0.9072 H         1 <0>         0.0528
     27 H4          0.7330   -1.5874   -1.2628 H         1 <0>         0.0602
     28 H5          0.1910   -0.1364   -2.1398 H         1 <0>         0.0702
     29 H6          2.6638   -0.3194   -2.1644 H         1 <0>         0.0617
     30 H7          2.1388    1.1220   -1.2617 H         1 <0>         0.0658
     31 H8          2.9084   -1.5646   -0.0341 H         1 <0>         0.0610
     32 H9          3.9162   -0.0975   -0.0359 H         1 <0>         0.0615
     33 H10         2.7046   -0.3424    2.1137 H         1 <0>         0.0636
     34 H11         2.1627    1.1086    1.2367 H         1 <0>         0.0670
     35 H12         0.2319   -0.1594    2.1383 H         1 <0>         0.0649
     36 H13         0.7568   -1.6008    1.2356 H         1 <0>         0.0648
     37 H14        -1.4185   -1.6235    0.0069 H         1 <0>         0.0623
     38 H15        -1.9435   -0.1821    0.9097 H         1 <0>         0.0632
     39 H16        -3.4511   -1.5789    0.5273 H         1 <0>         0.1286
     40 H17        -5.7995   -2.2676    0.2636 H         1 <0>         0.1298
     41 H18        -6.0355   -0.0883   -3.3952 H         1 <0>         0.1317
     42 H19        -3.6910    0.6140   -3.1331 H         1 <0>         0.1319
     43 H20        -7.7412   -1.7076   -2.8012 H         1 <0>         0.1057
     44 H21        -7.6425   -2.6174   -1.2745 H         1 <0>         0.0888
     45 H22        -8.2642    0.3780   -1.4955 H         1 <0>         0.1615
     46 H23       -11.3858   -1.5201    0.0339 H         1 <0>         0.4181
@<TRIPOS>BOND
     1    1    2 1
     2    1   24 1
     3    1   25 1
     4    1   26 1
     5    2    7 1
     6    2    3 1
     7    2    8 1
     8    3    4 1
     9    3   27 1
    10    3   28 1
    11    4    5 1
    12    4   29 1
    13    4   30 1
    14    5    6 1
    15    5   31 1
    16    5   32 1
    17    6    7 1
    18    6   33 1
    19    6   34 1
    20    7   35 1
    21    7   36 1
    22    8    9 1
    23    8   37 1
    24    8   38 1
    25    9   10 1
    26   10   15 ar
    27   10   11 ar
    28   11   12 ar
    29   11   39 1
    30   12   13 ar
    31   12   40 1
    32   13   14 ar
    33   13   16 1
    34   14   15 ar
    35   14   41 1
    36   15   42 1
    37   16   17 1
    38   16   43 1
    39   16   44 1
    40   17   23 1
    41   17   18 1
    42   17   45 1
    43   18   19 2
    44   18   20 am
    45   20   21 am
    46   20   46 1
    47   21   22 2
    48   21   23 1
@<TRIPOS>MOLECULE
CHEMBL1213972
   41    44     0     0     0
SMALL
USER_CHARGES

@<TRIPOS>ATOM
      1 C1         -0.0173    1.4248    0.0099 C.3       1 <0>         0.0270
      2 O1          0.0021   -0.0041    0.0020 O.3       1 <0>        -0.3174
      3 C2          0.6058   -0.6071   -1.0557 C.ar      1 <0>         0.1230
      4 C3          1.1730    0.1625   -2.0626 C.ar      1 <0>        -0.2041
      5 C4          1.7877   -0.4464   -3.1405 C.ar      1 <0>        -0.0802
      6 C5          1.8412   -1.8234   -3.2221 C.ar      1 <0>        -0.1402
      7 C6          1.2746   -2.6035   -2.2154 C.ar      1 <0>         0.0156
      8 C7          0.6601   -1.9891   -1.1263 C.ar      1 <0>        -0.1187
      9 C8          1.3302   -4.0832   -2.3008 C.2       1 <0>         0.1344
     10 C9          2.0276   -4.6900   -3.3074 C.2       1 <0>        -0.2352
     11 S1          1.7500   -6.4117   -2.9126 S.3       1 <0>         0.0426
     12 C10         0.7423   -6.1482   -1.4600 C.2       1 <0>         0.3970
     13 N1          0.7088   -4.8286   -1.3988 N.2       1 <0>        -0.5632
     14 N2          0.1566   -7.0790   -0.6200 N.pl3     1 <0>        -0.5239
     15 N3          0.3241   -8.4480   -0.8661 N.2       1 <0>        -0.2472
     16 C11        -0.2257   -9.3217   -0.0776 C.2       1 <0>         0.1638
     17 C12        -0.0496  -10.7606   -0.3363 C.2       1 <0>        -0.1522
     18 C13        -0.5655  -11.7863    0.3922 C.2       1 <0>         0.1090
     19 N4         -0.1856  -12.9766   -0.1564 N.pl3     1 <0>        -0.5837
     20 H1         -0.4311  -13.8496    0.1879 H         1 <0>         0.4219
     21 C14         0.5972  -12.7600   -1.2702 C.ar      1 <0>         0.0880
     22 C15         0.7148  -11.3701   -1.4388 C.ar      1 <0>        -0.0788
     23 C16         1.4550  -10.8562   -2.5013 C.ar      1 <0>        -0.0632
     24 C17         2.0669  -11.7170   -3.3856 C.ar      1 <0>        -0.1412
     25 C18         1.9486  -13.0898   -3.2224 C.ar      1 <0>        -0.0962
     26 C19         1.2269  -13.6124   -2.1716 C.ar      1 <0>        -0.1294
     27 H2          1.0053    1.8021    0.0021 H         1 <0>         0.0557
     28 H3         -0.5445    1.7859   -0.8732 H         1 <0>         0.0557
     29 H4         -0.5275    1.7763    0.9067 H         1 <0>         0.1004
     30 H5          1.1335    1.2402   -2.0035 H         1 <0>         0.1286
     31 H6          2.2270    0.1569   -3.9212 H         1 <0>         0.1292
     32 H7          2.3215   -2.2962   -4.0660 H         1 <0>         0.1281
     33 H8          0.2235   -2.5890   -0.3415 H         1 <0>         0.1394
     34 H9          2.5906   -4.2509   -4.1177 H         1 <0>         0.1986
     35 H10        -0.3701   -6.7836    0.1391 H         1 <0>         0.4038
     36 H11        -0.8121   -8.9928    0.7676 H         1 <0>         0.1261
     37 H12        -1.1821  -11.6756    1.2720 H         1 <0>         0.1822
     38 H13         1.5482   -9.7881   -2.6313 H         1 <0>         0.1311
     39 H14         2.6413  -11.3214   -4.2102 H         1 <0>         0.1252
     40 H15         2.4321  -13.7552   -3.9224 H         1 <0>         0.1270
     41 H16         1.1404  -14.6825   -2.0544 H         1 <0>         0.1214
@<TRIPOS>BOND
     1    1    2 1
     2    1   27 1
     3    1   28 1
     4    1   29 1
     5    2    3 1
     6    3    8 ar
     7    3    4 ar
     8    4    5 ar
     9    4   30 1
    10    5    6 ar
    11    5   31 1
    12    6    7 ar
    13    6   32 1
    14    7    8 ar
    15    7    9 1
    16    8   33 1
    17    9   13 1
    18    9   10 2
    19   10   11 1
    20   10   34 1
    21   11   12 1
    22   12   13 2
    23   12   14 1
    24   14   15 1
    25   14   35 1
    26   15   16 2
    27   16   17 1
    28   16   36 1
    29   17   22 1
    30   17   18 2
    31   18   19 1
    32   18   37 1
    33   19   20 1
    34   19   21 1
    35   21   26 ar
    36   21   22 ar
    37   22   23 ar
    38   23   24 ar
    39   23   38 1
    40   24   25 ar
    41   24   39 1
    42   25   26 ar
    43   25   40 1
    44   26   41 1
@<TRIPOS>MOLECULE
CHEMBL295093
   26    27     0     0     0
SMALL
USER_CHARGES

@<TRIPOS>ATOM
      1 C1          0.0180   -1.1779   -0.0044 C.1       1 <0>        -0.1872
      2 C2          0.0021   -0.0041    0.0020 C.1       1 <0>        -0.1928
      3 C3         -0.0179    1.4678    0.0101 C.3       1 <0>         0.1643
      4 N1          1.3603    1.9762   -0.0003 N.3       1 <0>        -0.6689
      5 C4          1.3795    3.4451    0.0074 C.3       1 <0>         0.1259
      6 C5          2.7214    3.9660   -0.5497 C.3       1 <0>        -0.1105
      7 C6          3.5710    4.1266    0.7289 C.3       1 <0>        -0.0870
      8 C7          2.5716    4.3555    1.8424 C.ar      1 <0>        -0.0846
      9 C8          1.3122    3.9638    1.4278 C.ar      1 <0>        -0.1404
     10 C9          0.2349    4.0836    2.2892 C.ar      1 <0>        -0.0993
     11 C10         0.4146    4.5936    3.5605 C.ar      1 <0>        -0.1236
     12 C11         1.6735    4.9852    3.9749 C.ar      1 <0>        -0.1117
     13 C12         2.7499    4.8655    3.1172 C.ar      1 <0>        -0.1110
     14 H1          0.0322   -2.2278   -0.0102 H         1 <0>         0.2187
     15 H2         -0.5451    1.8289   -0.8729 H         1 <0>         0.0967
     16 H3         -0.5281    1.8193    0.9069 H         1 <0>         0.0562
     17 H4          1.8890    1.6036    0.7740 H         1 <0>         0.3480
     18 H5          0.5477    3.8367   -0.5781 H         1 <0>         0.0904
     19 H6          3.1702    3.2367   -1.2240 H         1 <0>         0.0907
     20 H7          2.5873    4.9257   -1.0488 H         1 <0>         0.0784
     21 H8          4.1460    3.2200    0.9172 H         1 <0>         0.0821
     22 H9          4.2364    4.9849    0.6355 H         1 <0>         0.0775
     23 H10        -0.7492    3.7778    1.9661 H         1 <0>         0.1175
     24 H11        -0.4280    4.6864    4.2297 H         1 <0>         0.1244
     25 H12         1.8158    5.3842    4.9684 H         1 <0>         0.1250
     26 H13         3.7334    5.1718    3.4418 H         1 <0>         0.1212
@<TRIPOS>BOND
     1    1    2 3
     2    1   14 1
     3    2    3 1
     4    3    4 1
     5    3   15 1
     6    3   16 1
     7    4    5 1
     8    4   17 1
     9    5    9 1
    10    5    6 1
    11    5   18 1
    12    6    7 1
    13    6   19 1
    14    6   20 1
    15    7    8 1
    16    7   21 1
    17    7   22 1
    18    8   13 ar
    19    8    9 ar
    20    9   10 ar
    21   10   11 ar
    22   10   23 1
    23   11   12 ar
    24   11   24 1
    25   12   13 ar
    26   12   25 1
    27   13   26 1
@<TRIPOS>MOLECULE
CHEMBL295093__1
   27    28     0     0     0
SMALL
USER_CHARGES

@<TRIPOS>ATOM
      1 C1          0.0180   -1.1779   -0.0044 C.1       1 <0>        -0.0525
      2 C2          0.0021   -0.0041    0.0020 C.1       1 <0>        -0.3018
      3 C3         -0.0179    1.4678    0.0101 C.3       1 <0>         0.1273
      4 N1          1.3603    1.9762   -0.0003 N.4       1 <0>        -0.5031
      5 C4          1.3403    3.4451    0.0078 C.3       1 <0>         0.0763
      6 C5          2.7788    4.0006   -0.0586 C.3       1 <0>        -0.1321
      7 C6          3.1356    4.1757    1.4328 C.3       1 <0>        -0.1022
      8 C7          1.8104    4.3755    2.1363 C.ar      1 <0>        -0.0659
      9 C8          0.7786    3.9555    1.3174 C.ar      1 <0>        -0.1733
     10 C9         -0.5309    4.0456    1.7577 C.ar      1 <0>        -0.0834
     11 C10        -0.8094    4.5539    3.0118 C.ar      1 <0>        -0.1150
     12 C11         0.2220    4.9737    3.8304 C.ar      1 <0>        -0.0773
     13 C12         1.5294    4.8838    3.3932 C.ar      1 <0>        -0.1041
     14 H1          0.0322   -2.2278   -0.0102 H         1 <0>         0.2370
     15 H2         -0.5451    1.8289   -0.8729 H         1 <0>         0.1499
     16 H3         -0.5281    1.8193    0.9069 H         1 <0>         0.1476
     17 H4          1.8483    1.6420    0.8171 H         1 <0>         0.4288
     18 H5          0.7499    3.8193   -0.8285 H         1 <0>         0.1506
     19 H6          3.4487    3.2853   -0.5359 H         1 <0>         0.1013
     20 H7          2.8005    4.9590   -0.5773 H         1 <0>         0.1204
     21 H8          3.6332    3.2822    1.8100 H         1 <0>         0.0929
     22 H9          3.7719    5.0501    1.5693 H         1 <0>         0.1023
     23 H10        -1.3374    3.7177    1.1186 H         1 <0>         0.1308
     24 H11        -1.8320    4.6234    3.3520 H         1 <0>         0.1394
     25 H12         0.0062    5.3714    4.8110 H         1 <0>         0.1395
     26 H13         2.3349    5.2120    4.0334 H         1 <0>         0.1350
     27 H14         1.8325    1.6508   -0.8305 H         1 <0>         0.4315
@<TRIPOS>BOND
     1    1    2 3
     2    1   14 1
     3    2    3 1
     4    3    4 1
     5    3   15 1
     6    3   16 1
     7    4    5 1
     8    4   17 1
     9    4   27 1
    10    5    9 1
    11    5    6 1
    12    5   18 1
    13    6    7 1
    14    6   19 1
    15    6   20 1
    16    7    8 1
    17    7   21 1
    18    7   22 1
    19    8   13 ar
    20    8    9 ar
    21    9   10 ar
    22   10   11 ar
    23   10   23 1
    24   11   12 ar
    25   11   24 1
    26   12   13 ar
    27   12   25 1
    28   13   26 1
@<TRIPOS>MOLECULE
CHEMBL295093__2
   26    27     0     0     0
SMALL
USER_CHARGES

@<TRIPOS>ATOM
      1 C1          0.0180   -1.1779   -0.0044 C.1       1 <0>        -0.1858
      2 C2          0.0021   -0.0041    0.0020 C.1       1 <0>        -0.1934
      3 C3         -0.0179    1.4678    0.0101 C.3       1 <0>         0.1630
      4 N1          1.3603    1.9762   -0.0003 N.3       1 <0>        -0.6766
      5 C4          1.3795    3.4451    0.0074 C.3       1 <0>         0.1240
      6 C5          2.7318    3.9601    0.5443 C.3       1 <0>        -0.1222
      7 C6          2.9547    5.2387   -0.2910 C.3       1 <0>        -0.0801
      8 C7          2.1904    5.0098   -1.5774 C.ar      1 <0>        -0.0956
      9 C8          1.2851    3.9790   -1.4059 C.ar      1 <0>        -0.0833
     10 C9          0.4719    3.5939   -2.4581 C.ar      1 <0>        -0.0956
     11 C10         0.5623    4.2363   -3.6778 C.ar      1 <0>        -0.1224
     12 C11         1.4673    5.2666   -3.8493 C.ar      1 <0>        -0.1175
     13 C12         2.2795    5.6524   -2.8005 C.ar      1 <0>        -0.1089
     14 H1          0.0322   -2.2278   -0.0102 H         1 <0>         0.2189
     15 H2         -0.5451    1.8289   -0.8729 H         1 <0>         0.0966
     16 H3         -0.5281    1.8193    0.9069 H         1 <0>         0.0561
     17 H4          1.8890    1.6036    0.7740 H         1 <0>         0.3491
     18 H5          0.5591    3.8303    0.6128 H         1 <0>         0.0645
     19 H6          2.6620    4.1981    1.6057 H         1 <0>         0.0792
     20 H7          3.5237    3.2341    0.3601 H         1 <0>         0.0848
     21 H8          2.5589    6.1077    0.2346 H         1 <0>         0.0818
     22 H9          4.0159    5.3734   -0.5005 H         1 <0>         0.0786
     23 H10        -0.2356    2.7888   -2.3249 H         1 <0>         0.1179
     24 H11        -0.0735    3.9334   -4.4967 H         1 <0>         0.1232
     25 H12         1.5394    5.7698   -4.8022 H         1 <0>         0.1237
     26 H13         2.9865    6.4576   -2.9352 H         1 <0>         0.1200
@<TRIPOS>BOND
     1    1    2 3
     2    1   14 1
     3    2    3 1
     4    3    4 1
     5    3   15 1
     6    3   16 1
     7    4    5 1
     8    4   17 1
     9    5    9 1
    10    5    6 1
    11    5   18 1
    12    6    7 1
    13    6   19 1
    14    6   20 1
    15    7    8 1
    16    7   21 1
    17    7   22 1
    18    8   13 ar
    19    8    9 ar
    20    9   10 ar
    21   10   11 ar
    22   10   23 1
    23   11   12 ar
    24   11   24 1
    25   12   13 ar
    26   12   25 1
    27   13   26 1
@<TRIPOS>MOLECULE
CHEMBL295093__3
   27    28     0     0     0
SMALL
USER_CHARGES

@<TRIPOS>ATOM
      1 C1          1.9607   -1.1497    1.2719 C.1       1 <0>        -0.0500
      2 C2          1.9431    0.0242    1.2709 C.1       1 <0>        -0.3050
      3 C3          1.9209    1.4960    1.2697 C.3       1 <0>         0.1313
      4 N1          1.3603    1.9762   -0.0003 N.4       1 <0>        -0.5071
      5 C4          1.2258    3.4384    0.0456 C.3       1 <0>         0.0821
      6 C5          2.6176    4.1052    0.0221 C.3       1 <0>        -0.1361
      7 C6          2.3559    5.3897   -0.7926 C.3       1 <0>        -0.0879
      8 C7          1.1744    5.0620   -1.6802 C.ar      1 <0>        -0.0631
      9 C8          0.5249    3.9406   -1.1985 C.ar      1 <0>        -0.1713
     10 C9         -0.5923    3.4553   -1.8568 C.ar      1 <0>        -0.0940
     11 C10        -1.0596    4.0881   -2.9925 C.ar      1 <0>        -0.1118
     12 C11        -0.4102    5.2090   -3.4741 C.ar      1 <0>        -0.0820
     13 C12         0.7046    5.6948   -2.8186 C.ar      1 <0>        -0.1013
     14 H1          1.9765   -2.1996    1.2728 H         1 <0>         0.2369
     15 H2          1.3050    1.8508    2.0960 H         1 <0>         0.1501
     16 H3          2.9365    1.8747    1.3848 H         1 <0>         0.1501
     17 H4          1.9747    1.7186   -0.7580 H         1 <0>         0.4305
     18 H5          0.6756    3.7392    0.9371 H         1 <0>         0.1544
     19 H6          2.9481    4.3476    1.0321 H         1 <0>         0.1116
     20 H7          3.3441    3.4679   -0.4820 H         1 <0>         0.0963
     21 H8          2.1106    6.2167   -0.1264 H         1 <0>         0.1016
     22 H9          3.2273    5.6371   -1.3989 H         1 <0>         0.0981
     23 H10        -1.1003    2.5794   -1.4811 H         1 <0>         0.1243
     24 H11        -1.9313    3.7070   -3.5037 H         1 <0>         0.1383
     25 H12        -0.7741    5.7049   -4.3618 H         1 <0>         0.1391
     26 H13         1.2115    6.5708   -3.1955 H         1 <0>         0.1355
     27 H14         0.4531    1.5595   -0.1464 H         1 <0>         0.4293
@<TRIPOS>BOND
     1    1    2 3
     2    1   14 1
     3    2    3 1
     4    3    4 1
     5    3   15 1
     6    3   16 1
     7    4    5 1
     8    4   17 1
     9    4   27 1
    10    5    9 1
    11    5    6 1
    12    5   18 1
    13    6    7 1
    14    6   19 1
    15    6   20 1
    16    7    8 1
    17    7   21 1
    18    7   22 1
    19    8   13 ar
    20    8    9 ar
    21    9   10 ar
    22   10   11 ar
    23   10   23 1
    24   11   12 ar
    25   11   24 1
    26   12   13 ar
    27   12   25 1
    28   13   26 1
@<TRIPOS>MOLECULE
CHEMBL488074
   35    37     0     0     0
SMALL
USER_CHARGES

@<TRIPOS>ATOM
      1 C1         -0.0184    1.5028    0.0103 C.3       1 <0>        -0.1028
      2 C2          0.0021   -0.0041    0.0020 C.ar      1 <0>        -0.1305
      3 C3          0.0059   -0.6928   -1.2004 C.ar      1 <0>         0.1821
      4 C4          0.0256   -2.0858   -1.2183 C.ar      1 <0>        -0.2218
      5 C5          0.0415   -2.7923   -0.0505 C.ar      1 <0>        -0.0189
      6 C6          0.0375   -2.1131    1.1729 C.ar      1 <0>        -0.1672
      7 C7          0.0230   -0.7060    1.1972 C.ar      1 <0>         0.1813
      8 O1          0.0240   -0.0566    2.3808 O.3       1 <0>        -0.2613
      9 C8          0.0371   -0.7218    3.5453 C.2       1 <0>         0.5245
     10 O2          0.0283   -0.0914    4.5873 O.2       1 <0>        -0.4590
     11 C9          0.0604   -2.1340    3.5970 C.2       1 <0>        -0.2404
     12 C10         0.0533   -2.8450    2.4418 C.2       1 <0>         0.0151
     13 C11         0.0796   -4.3270    2.7361 C.3       1 <0>        -0.0896
     14 C12         0.5180   -4.4342    4.2131 C.3       1 <0>        -0.1201
     15 C13         0.0825   -3.0737    4.7833 C.3       1 <0>        -0.0591
     16 O3         -0.0103   -0.0046   -2.3704 O.3       1 <0>        -0.2913
     17 C14        -0.0054   -0.7731   -3.5751 C.3       1 <0>         0.1010
     18 C15        -0.0251    0.1544   -4.7627 C.2       1 <0>        -0.1387
     19 C16         0.9994    0.1948   -5.5802 C.2       1 <0>        -0.1062
     20 Br1        -1.5272    1.2601   -5.0740 Br        1 <0>        -0.0462
     21 H1          1.0042    1.8801    0.0026 H         1 <0>         0.0736
     22 H2         -0.5455    1.8639   -0.8728 H         1 <0>         0.0779
     23 H3         -0.5286    1.8543    0.9071 H         1 <0>         0.0734
     24 H4          0.0281   -2.6101   -2.1625 H         1 <0>         0.1409
     25 H5          0.0567   -3.8720   -0.0706 H         1 <0>         0.1426
     26 H6         -0.9131   -4.7571    2.6035 H         1 <0>         0.0977
     27 H7          0.8000   -4.8287    2.0900 H         1 <0>         0.0891
     28 H8          0.0067   -5.2573    4.7122 H         1 <0>         0.0881
     29 H9          1.5995   -4.5450    4.2912 H         1 <0>         0.0779
     30 H10         0.7923   -2.7216    5.5318 H         1 <0>         0.0838
     31 H11        -0.9140   -3.1598    5.2165 H         1 <0>         0.0840
     32 H12         0.8935   -1.3886   -3.6098 H         1 <0>         0.0862
     33 H13        -0.8862   -1.4146   -3.6005 H         1 <0>         0.0842
     34 H14         1.8573   -0.4367   -5.4024 H         1 <0>         0.1259
     35 H15         0.9852    0.8595   -6.4312 H         1 <0>         0.1238
@<TRIPOS>BOND
     1    1    2 1
     2    1   21 1
     3    1   22 1
     4    1   23 1
     5    2    7 ar
     6    2    3 ar
     7    3    4 ar
     8    3   16 1
     9    4    5 ar
    10    4   24 1
    11    5    6 ar
    12    5   25 1
    13    6   12 1
    14    6    7 ar
    15    7    8 1
    16    8    9 1
    17    9   10 2
    18    9   11 1
    19   11   15 1
    20   11   12 2
    21   12   13 1
    22   13   14 1
    23   13   26 1
    24   13   27 1
    25   14   15 1
    26   14   28 1
    27   14   29 1
    28   15   30 1
    29   15   31 1
    30   16   17 1
    31   17   18 1
    32   17   32 1
    33   17   33 1
    34   18   19 2
    35   18   20 1
    36   19   34 1
    37   19   35 1
@<TRIPOS>MOLECULE
CHEMBL573301
   43    46     0     0     0
SMALL
USER_CHARGES

@<TRIPOS>ATOM
      1 C1         -0.0178    1.4648    0.0101 C.3       1 <0>        -0.0489
      2 N1          0.0021   -0.0041    0.0020 N.4       1 <0>        -0.5099
      3 C2          0.6897   -0.4778   -1.2066 C.3       1 <0>         0.0351
      4 C3          0.7101   -1.9847   -1.2149 C.2       1 <0>        -0.0416
      5 C4         -0.2382   -2.6916   -1.8829 C.2       1 <0>        -0.1835
      6 C5         -0.1972   -4.1010   -1.8761 C.2       1 <0>         0.5027
      7 O1         -1.0534   -4.7225   -2.4794 O.2       1 <0>        -0.4269
      8 O2          0.7616   -4.7753   -1.2221 O.3       1 <0>        -0.2593
      9 C6          1.7334   -4.1336   -0.5387 C.ar      1 <0>         0.2023
     10 C7          1.7563   -2.7266   -0.5081 C.ar      1 <0>        -0.2069
     11 C8          2.7645   -2.0576    0.1947 C.ar      1 <0>        -0.0331
     12 C9          3.7274   -2.7736    0.8453 C.ar      1 <0>        -0.2155
     13 C10         3.7131   -4.1665    0.8142 C.ar      1 <0>         0.2087
     14 C11         2.7162   -4.8453    0.1320 C.ar      1 <0>        -0.1683
     15 O3          4.6780   -4.8644    1.4658 O.3       1 <0>        -0.2904
     16 C12         5.6710   -4.1059    2.1591 C.3       1 <0>         0.1061
     17 C13         6.6505   -5.0433    2.8171 C.ar      1 <0>        -0.1042
     18 C14         6.4179   -5.4920    4.1039 C.ar      1 <0>        -0.0783
     19 C15         7.3131   -6.3523    4.7116 C.ar      1 <0>        -0.1039
     20 C16         8.4469   -6.7668    4.0317 C.ar      1 <0>         0.0543
     21 C17         8.6812   -6.3149    2.7354 C.ar      1 <0>         0.0313
     22 C18         7.7767   -5.4573    2.1306 C.ar      1 <0>        -0.0744
     23 O4          9.8499   -6.8600    2.2880 O.3       1 <0>        -0.3053
     24 C19        10.5344   -7.3232    3.4671 C.3       1 <0>         0.2123
     25 O5          9.4687   -7.5952    4.3964 O.3       1 <0>        -0.3040
     26 H1          1.0047    1.8421    0.0024 H         1 <0>         0.1268
     27 H2         -0.5450    1.8259   -0.8730 H         1 <0>         0.1283
     28 H3         -0.5280    1.8163    0.9069 H         1 <0>         0.1316
     29 H4          0.4901   -0.3383    0.8195 H         1 <0>         0.4314
     30 H5          0.1625   -0.1167   -2.0897 H         1 <0>         0.1544
     31 H6          1.7123   -0.1005   -1.2143 H         1 <0>         0.1512
     32 H7         -1.0219   -2.1754   -2.4176 H         1 <0>         0.1755
     33 H8          2.7810   -0.9780    0.2220 H         1 <0>         0.1351
     34 H9          4.5057   -2.2571    1.3874 H         1 <0>         0.1495
     35 H10         2.7116   -5.9251    0.1128 H         1 <0>         0.1618
     36 H11         6.1992   -3.4664    1.4518 H         1 <0>         0.0834
     37 H12         5.1920   -3.4888    2.9192 H         1 <0>         0.0853
     38 H13         5.5350   -5.1693    4.6357 H         1 <0>         0.1415
     39 H14         7.1289   -6.7012    5.7169 H         1 <0>         0.1435
     40 H15         7.9536   -5.1087    1.1238 H         1 <0>         0.1387
     41 H16        11.0960   -8.2321    3.2517 H         1 <0>         0.1383
     42 H17        11.1937   -6.5476    3.8567 H         1 <0>         0.0907
     43 H18        -0.9445   -0.3533    0.0092 H         1 <0>         0.4346
@<TRIPOS>BOND
     1    1    2 1
     2    1   26 1
     3    1   27 1
     4    1   28 1
     5    2    3 1
     6    2   29 1
     7    2   43 1
     8    3    4 1
     9    3   30 1
    10    3   31 1
    11    4   10 1
    12    4    5 2
    13    5    6 1
    14    5   32 1
    15    6    7 2
    16    6    8 1
    17    8    9 1
    18    9   14 ar
    19    9   10 ar
    20   10   11 ar
    21   11   12 ar
    22   11   33 1
    23   12   13 ar
    24   12   34 1
    25   13   14 ar
    26   13   15 1
    27   14   35 1
    28   15   16 1
    29   16   17 1
    30   16   36 1
    31   16   37 1
    32   17   22 ar
    33   17   18 ar
    34   18   19 ar
    35   18   38 1
    36   19   20 ar
    37   19   39 1
    38   20   25 1
    39   20   21 ar
    40   21   22 ar
    41   21   23 1
    42   22   40 1
    43   23   24 1
    44   24   25 1
    45   24   41 1
    46   24   42 1
@<TRIPOS>MOLECULE
CHEMBL487235
   34    36     0     0     0
SMALL
USER_CHARGES

@<TRIPOS>ATOM
      1 C1         -0.0184    1.5028    0.0103 C.3       1 <0>        -0.1037
      2 C2          0.0021   -0.0041    0.0020 C.ar      1 <0>        -0.1220
      3 C3          0.0057   -0.6900   -1.2019 C.ar      1 <0>         0.1719
      4 C4          0.0235   -2.0805   -1.2203 C.ar      1 <0>        -0.2183
      5 C5          0.0340   -2.7885   -0.0382 C.ar      1 <0>        -0.0295
      6 C6          0.0289   -2.1079    1.1768 C.ar      1 <0>        -0.1505
      7 C7          0.0229   -0.7031    1.1985 C.ar      1 <0>         0.1661
      8 O1          0.0431   -0.0346    2.3788 O.3       1 <0>        -0.2793
      9 C8         -0.4803   -0.6442    3.4688 C.2       1 <0>         0.5344
     10 O2         -1.1368   -0.0245    4.2834 O.2       1 <0>        -0.4287
     11 C9         -0.2252   -2.0868    3.6309 C.ar      1 <0>        -0.1797
     12 C10         0.0284   -2.8351    2.4605 C.ar      1 <0>         0.0123
     13 C11         0.2781   -4.1962    2.5552 C.ar      1 <0>        -0.1193
     14 C12         0.2565   -4.8062    3.7945 C.ar      1 <0>        -0.0739
     15 C13        -0.0118   -4.0734    4.9408 C.ar      1 <0>        -0.1308
     16 C14        -0.2377   -2.7171    4.8689 C.ar      1 <0>        -0.0401
     17 O3         -0.0086    0.0002   -2.3717 O.3       1 <0>        -0.2930
     18 C15        -0.0039   -0.7666   -3.5775 C.3       1 <0>         0.1014
     19 C16        -0.0214    0.1625   -4.7638 C.2       1 <0>        -0.1376
     20 C17         1.0038    0.2025   -5.5805 C.2       1 <0>        -0.1073
     21 Br1        -1.5217    1.2708   -5.0747 Br        1 <0>        -0.0469
     22 H1          1.0042    1.8801    0.0026 H         1 <0>         0.0738
     23 H2         -0.5455    1.8639   -0.8728 H         1 <0>         0.0773
     24 H3         -0.5286    1.8543    0.9071 H         1 <0>         0.0727
     25 H4          0.0286   -2.6067   -2.1634 H         1 <0>         0.1403
     26 H5          0.0459   -3.8683   -0.0538 H         1 <0>         0.1413
     27 H6          0.4872   -4.7745    1.6674 H         1 <0>         0.1374
     28 H7          0.4504   -5.8658    3.8714 H         1 <0>         0.1356
     29 H8         -0.0258   -4.5684    5.9006 H         1 <0>         0.1371
     30 H9         -0.4413   -2.1518    5.7664 H         1 <0>         0.1411
     31 H10         0.8942   -1.3835   -3.6123 H         1 <0>         0.0855
     32 H11        -0.8856   -1.4069   -3.6044 H         1 <0>         0.0833
     33 H12         1.8606   -0.4305   -5.4029 H         1 <0>         0.1257
     34 H13         0.9912    0.8684   -6.4307 H         1 <0>         0.1234
@<TRIPOS>BOND
     1    1    2 1
     2    1   22 1
     3    1   23 1
     4    1   24 1
     5    2    7 ar
     6    2    3 ar
     7    3    4 ar
     8    3   17 1
     9    4    5 ar
    10    4   25 1
    11    5    6 ar
    12    5   26 1
    13    6   12 1
    14    6    7 ar
    15    7    8 1
    16    8    9 1
    17    9   10 2
    18    9   11 1
    19   11   16 ar
    20   11   12 ar
    21   12   13 ar
    22   13   14 ar
    23   13   27 1
    24   14   15 ar
    25   14   28 1
    26   15   16 ar
    27   15   29 1
    28   16   30 1
    29   17   18 1
    30   18   19 1
    31   18   31 1
    32   18   32 1
    33   19   20 2
    34   19   21 1
    35   20   33 1
    36   20   34 1
@<TRIPOS>MOLECULE
CHEMBL221333
   33    34     0     0     0
SMALL
USER_CHARGES

@<TRIPOS>ATOM
      1 C1         -0.1677    1.4591    0.0143 C.3       1 <0>         0.0593
      2 N1         -0.0572   -0.0017    0.0044 N.am      1 <0>        -0.6206
      3 C2          0.1016   -0.7328    1.2640 C.3       1 <0>         0.1244
      4 C3         -1.2767   -1.0965    1.8198 C.3       1 <0>        -0.0954
      5 C4         -1.1133   -1.8486    3.1155 C.ar      1 <0>        -0.0834
      6 C5         -1.0034   -3.2265    3.1057 C.ar      1 <0>        -0.1124
      7 C6         -0.8536   -3.9164    4.2942 C.ar      1 <0>        -0.1173
      8 C7         -0.8132   -3.2283    5.4925 C.ar      1 <0>        -0.1225
      9 C8         -0.9222   -1.8502    5.5021 C.ar      1 <0>        -0.1193
     10 C9         -1.0678   -1.1601    4.3133 C.ar      1 <0>        -0.1176
     11 C10        -0.1016   -0.6730   -1.1634 C.2       1 <0>         0.5899
     12 O1         -0.1233   -1.8898   -1.1654 O.2       1 <0>        -0.5218
     13 C11        -0.1239    0.0629   -2.4320 C.2       1 <0>        -0.0615
     14 C12        -0.3275   -0.4772   -3.6840 C.2       1 <0>        -0.1026
     15 C13        -0.2691    0.5771   -4.6008 C.2       1 <0>        -0.2107
     16 C14        -0.0361    1.7175   -3.9082 C.2       1 <0>         0.0200
     17 N2          0.0488    1.4196   -2.5887 N.pl3     1 <0>        -0.5480
     18 H1          0.2068    2.0560   -1.8740 H         1 <0>         0.4189
     19 H2          0.8126    1.8989   -0.1696 H         1 <0>         0.0607
     20 H3         -0.8602    1.7763   -0.7653 H         1 <0>         0.0749
     21 H4         -0.5376    1.7889    0.9851 H         1 <0>         0.0875
     22 H5          0.6735   -1.6435    1.0859 H         1 <0>         0.0885
     23 H6          0.6298   -0.1069    1.9833 H         1 <0>         0.0808
     24 H7         -1.8485   -0.1858    1.9979 H         1 <0>         0.0725
     25 H8         -1.8049   -1.7224    1.1005 H         1 <0>         0.0798
     26 H9         -1.0349   -3.7641    2.1696 H         1 <0>         0.1240
     27 H10        -0.7684   -4.9930    4.2867 H         1 <0>         0.1229
     28 H11        -0.6969   -3.7673    6.4211 H         1 <0>         0.1217
     29 H12        -0.8911   -1.3127    6.4383 H         1 <0>         0.1219
     30 H13        -1.1492   -0.0832    4.3205 H         1 <0>         0.1200
     31 H14        -0.4993   -1.5185   -3.9135 H         1 <0>         0.1480
     32 H15        -0.3884    0.4963   -5.6711 H         1 <0>         0.1447
     33 H16         0.0623    2.7039   -4.3370 H         1 <0>         0.1722
@<TRIPOS>BOND
     1    1    2 1
     2    1   19 1
     3    1   20 1
     4    1   21 1
     5    2    3 1
     6    2   11 am
     7    3    4 1
     8    3   22 1
     9    3   23 1
    10    4    5 1
    11    4   24 1
    12    4   25 1
    13    5   10 ar
    14    5    6 ar
    15    6    7 ar
    16    6   26 1
    17    7    8 ar
    18    7   27 1
    19    8    9 ar
    20    8   28 1
    21    9   10 ar
    22    9   29 1
    23   10   30 1
    24   11   12 2
    25   11   13 1
    26   13   17 1
    27   13   14 2
    28   14   15 1
    29   14   31 1
    30   15   16 2
    31   15   32 1
    32   16   17 1
    33   16   33 1
    34   17   18 1
@<TRIPOS>MOLECULE
CHEMBL406861
   33    34     0     0     0
SMALL
USER_CHARGES

@<TRIPOS>ATOM
      1 C1         -0.0173    1.4248    0.0099 C.3       1 <0>         0.0233
      2 O1          0.0021   -0.0041    0.0020 O.3       1 <0>        -0.3100
      3 C2         -1.1986   -0.6366    0.0101 C.ar      1 <0>         0.1784
      4 C3         -2.3744    0.1084    0.0196 C.ar      1 <0>        -0.2306
      5 C4         -3.5881   -0.5172    0.0282 C.ar      1 <0>        -0.0165
      6 C5         -3.6568   -1.9142    0.0271 C.ar      1 <0>        -0.2315
      7 C6         -2.4735   -2.6692    0.0171 C.ar      1 <0>         0.2099
      8 C7         -1.2491   -2.0230    0.0031 C.ar      1 <0>        -0.1983
      9 O2         -2.5294   -4.0247    0.0159 O.3       1 <0>        -0.4765
     10 C8         -4.9664   -2.5907    0.0369 C.2       1 <0>         0.4251
     11 O3         -5.0233   -3.8073    0.0359 O.2       1 <0>        -0.4460
     12 C9         -6.1979   -1.8006    0.0478 C.2       1 <0>        -0.2271
     13 C10        -7.3974   -2.4203    0.0568 C.2       1 <0>        -0.0187
     14 C11        -8.6354   -1.6261    0.0677 C.ar      1 <0>        -0.0751
     15 C12        -8.5739   -0.2283    0.0631 C.ar      1 <0>        -0.0885
     16 C13        -9.7381    0.5093    0.0729 C.ar      1 <0>        -0.1121
     17 C14       -10.9673   -0.1301    0.0874 C.ar      1 <0>        -0.0243
     18 C15       -11.0359   -1.5140    0.0922 C.ar      1 <0>        -0.1120
     19 C16        -9.8802   -2.2647    0.0770 C.ar      1 <0>        -0.0808
     20 Cl1       -12.4284    0.8072    0.1004 Cl        1 <0>        -0.0630
     21 H1          1.0053    1.8021    0.0021 H         1 <0>         0.1055
     22 H2         -0.5445    1.7859   -0.8732 H         1 <0>         0.0606
     23 H3         -0.5275    1.7763    0.9067 H         1 <0>         0.0607
     24 H4         -2.3264    1.1873    0.0205 H         1 <0>         0.1381
     25 H5         -4.4961    0.0674    0.0363 H         1 <0>         0.1381
     26 H6         -0.3346   -2.5973   -0.0087 H         1 <0>         0.1449
     27 H7         -2.5524   -4.4167   -0.8679 H         1 <0>         0.4003
     28 H8         -6.1474   -0.7218    0.0487 H         1 <0>         0.1330
     29 H9         -7.4479   -3.4991    0.0559 H         1 <0>         0.1385
     30 H10        -7.6165    0.2714    0.0521 H         1 <0>         0.1372
     31 H11        -9.6922    1.5883    0.0697 H         1 <0>         0.1384
     32 H12       -11.9975   -2.0056    0.1035 H         1 <0>         0.1391
     33 H13        -9.9352   -3.3433    0.0766 H         1 <0>         0.1396
@<TRIPOS>BOND
     1    1    2 1
     2    1   21 1
     3    1   22 1
     4    1   23 1
     5    2    3 1
     6    3    8 ar
     7    3    4 ar
     8    4    5 ar
     9    4   24 1
    10    5    6 ar
    11    5   25 1
    12    6    7 ar
    13    6   10 1
    14    7    8 ar
    15    7    9 1
    16    8   26 1
    17    9   27 1
    18   10   11 2
    19   10   12 1
    20   12   13 2
    21   12   28 1
    22   13   14 1
    23   13   29 1
    24   14   19 ar
    25   14   15 ar
    26   15   16 ar
    27   15   30 1
    28   16   17 ar
    29   16   31 1
    30   17   18 ar
    31   17   20 1
    32   18   19 ar
    33   18   32 1
    34   19   33 1
@<TRIPOS>MOLECULE
CHEMBL17079
   39    41     0     0     0
SMALL
USER_CHARGES

@<TRIPOS>ATOM
      1 C1         -0.0167    1.3781    0.0096 C.ar      1 <0>        -0.1061
      2 C2          1.1709    2.0855    0.0021 C.ar      1 <0>        -0.1227
      3 C3          2.3773    1.4107   -0.0130 C.ar      1 <0>        -0.0940
      4 C4          2.3960    0.0285   -0.0201 C.ar      1 <0>        -0.1031
      5 C5          1.2084   -0.6789   -0.0117 C.ar      1 <0>        -0.0940
      6 C6          0.0021   -0.0041    0.0020 C.ar      1 <0>        -0.1227
      7 C7          3.7112   -0.7071   -0.0376 C.3       1 <0>         0.0985
      8 O1          4.1410   -0.9464    1.3041 O.3       1 <0>        -0.3000
      9 C8          5.3182   -1.6047    1.4665 C.ar      1 <0>         0.1734
     10 C9          6.0463   -2.0063    0.3542 C.ar      1 <0>        -0.2138
     11 C10         7.2411   -2.6745    0.5148 C.ar      1 <0>        -0.0218
     12 C11         7.7193   -2.9470    1.7977 C.ar      1 <0>        -0.0944
     13 C12         6.9848   -2.5413    2.9132 C.ar      1 <0>        -0.0162
     14 C13         5.7932   -1.8693    2.7444 C.ar      1 <0>        -0.1546
     15 C14         9.0002   -3.6639    1.9744 C.2       1 <0>         0.3114
     16 N1          9.5396   -3.9760    3.1175 N.2       1 <0>        -0.2748
     17 N2         10.7436   -4.6457    2.8538 N.pl3     1 <0>        -0.3856
     18 C15        10.8728   -4.7050    1.5114 C.2       1 <0>         0.4143
     19 S1         12.1677   -5.4197    0.6491 S.2       1 <0>        -0.4495
     20 O2          9.7956   -4.1052    0.9757 O.3       1 <0>        -0.2075
     21 C16        11.6815   -5.1781    3.8454 C.3       1 <0>         0.1449
     22 C17        12.7107   -4.1037    4.2022 C.3       1 <0>        -0.0413
     23 C18        13.6531   -4.6385    5.1985 C.1       1 <0>         0.2057
     24 N3         14.3804   -5.0513    5.9673 N.1       1 <0>        -0.4079
     25 H1         -0.9591    1.9053    0.0259 H         1 <0>         0.1259
     26 H2          1.1563    3.1654    0.0076 H         1 <0>         0.1269
     27 H3          3.3051    1.9634   -0.0196 H         1 <0>         0.1250
     28 H4          1.2231   -1.7588   -0.0176 H         1 <0>         0.1250
     29 H5         -0.9258   -0.5567    0.0082 H         1 <0>         0.1269
     30 H6          3.5884   -1.6586   -0.5549 H         1 <0>         0.0777
     31 H7          4.4573   -0.1052   -0.5563 H         1 <0>         0.0778
     32 H8          5.6756   -1.7951   -0.6380 H         1 <0>         0.1432
     33 H9          7.8064   -2.9871   -0.3507 H         1 <0>         0.1426
     34 H10         7.3515   -2.7504    3.9073 H         1 <0>         0.1479
     35 H11         5.2263   -1.5515    3.6070 H         1 <0>         0.1472
     36 H12        11.1352   -5.4700    4.7423 H         1 <0>         0.1213
     37 H13        12.1925   -6.0476    3.4320 H         1 <0>         0.1305
     38 H14        13.2571   -3.8117    3.3053 H         1 <0>         0.1237
     39 H15        12.1998   -3.2341    4.6155 H         1 <0>         0.1201
@<TRIPOS>BOND
     1    1    6 ar
     2    1    2 ar
     3    1   25 1
     4    2    3 ar
     5    2   26 1
     6    3    4 ar
     7    3   27 1
     8    4    5 ar
     9    4    7 1
    10    5    6 ar
    11    5   28 1
    12    6   29 1
    13    7    8 1
    14    7   30 1
    15    7   31 1
    16    8    9 1
    17    9   14 ar
    18    9   10 ar
    19   10   11 ar
    20   10   32 1
    21   11   12 ar
    22   11   33 1
    23   12   13 ar
    24   12   15 1
    25   13   14 ar
    26   13   34 1
    27   14   35 1
    28   15   20 1
    29   15   16 2
    30   16   17 1
    31   17   18 1
    32   17   21 1
    33   18   19 2
    34   18   20 1
    35   21   22 1
    36   21   36 1
    37   21   37 1
    38   22   23 1
    39   22   38 1
    40   22   39 1
    41   23   24 3
@<TRIPOS>MOLECULE
CHEMBL592976
   32    34     0     0     0
SMALL
USER_CHARGES

@<TRIPOS>ATOM
      1 C1         -0.0163    1.3513    0.0095 C.2       1 <0>        -0.1493
      2 C2          1.1833    2.0380    0.0017 C.2       1 <0>        -0.1293
      3 C3          2.3426    1.3358   -0.0131 C.2       1 <0>        -0.1332
      4 S1          1.7535   -0.3495   -0.0166 S.3       1 <0>         0.0388
      5 C4          0.0021   -0.0041    0.0020 C.2       1 <0>        -0.1742
      6 C5          3.7608    1.8454   -0.0244 C.3       1 <0>         0.2987
      7 C6          4.3547    1.7193   -1.4044 C.2       1 <0>        -0.2447
      8 C7          5.3988    0.9122   -1.3280 C.2       1 <0>         0.1491
      9 C8          6.2578    0.5409   -2.5196 C.3       1 <0>        -0.0593
     10 C9          5.4895    0.8754   -3.8018 C.3       1 <0>        -0.1158
     11 C10         4.9683    2.3135   -3.7213 C.3       1 <0>        -0.1209
     12 C11         3.8615    2.3871   -2.6630 C.3       1 <0>        -0.0351
     13 N1          5.5907    0.4644   -0.0327 N.pl3     1 <0>        -0.5677
     14 N2          4.6184    0.9990    0.8233 N.pl3     1 <0>        -0.3738
     15 C12         4.4940    0.7838    2.1479 C.2       1 <0>         0.5816
     16 S2          3.2289    1.5361    3.0223 S.2       1 <0>        -0.5877
     17 N3          5.3655   -0.0237    2.7842 N.pl3     1 <0>        -0.8069
     18 H1         -0.9542    1.8866    0.0258 H         1 <0>         0.1333
     19 H2          1.1967    3.1179    0.0070 H         1 <0>         0.1326
     20 H3         -0.8275   -0.6955    0.0065 H         1 <0>         0.1830
     21 H4          3.7949    2.8811    0.3136 H         1 <0>         0.1196
     22 H5          7.1874    1.1093   -2.4916 H         1 <0>         0.0886
     23 H6          6.4781   -0.5263   -2.4933 H         1 <0>         0.0820
     24 H7          6.1541    0.7770   -4.6601 H         1 <0>         0.0763
     25 H8          4.6493    0.1898   -3.9116 H         1 <0>         0.0709
     26 H9          5.7834    2.9816   -3.4429 H         1 <0>         0.0673
     27 H10         4.5668    2.6105   -4.6902 H         1 <0>         0.0732
     28 H11         2.9731    1.8710   -3.0271 H         1 <0>         0.0735
     29 H12         3.6225    3.4299   -2.4544 H         1 <0>         0.0748
     30 H13         6.3000   -0.1364    0.2443 H         1 <0>         0.4274
     31 H14         6.0822   -0.4500    2.2888 H         1 <0>         0.3909
     32 H15         5.2759   -0.1786    3.7376 H         1 <0>         0.4363
@<TRIPOS>BOND
     1    1    5 2
     2    1    2 1
     3    1   18 1
     4    2    3 2
     5    2   19 1
     6    3    4 1
     7    3    6 1
     8    4    5 1
     9    5   20 1
    10    6   14 1
    11    6    7 1
    12    6   21 1
    13    7   12 1
    14    7    8 2
    15    8    9 1
    16    8   13 1
    17    9   10 1
    18    9   22 1
    19    9   23 1
    20   10   11 1
    21   10   24 1
    22   10   25 1
    23   11   12 1
    24   11   26 1
    25   11   27 1
    26   12   28 1
    27   12   29 1
    28   13   14 1
    29   13   30 1
    30   14   15 1
    31   15   16 2
    32   15   17 1
    33   17   31 1
    34   17   32 1
@<TRIPOS>MOLECULE
CHEMBL592976__1
   32    34     0     0     0
SMALL
USER_CHARGES

@<TRIPOS>ATOM
      1 C1         -0.0163    1.3513    0.0095 C.2       1 <0>        -0.1493
      2 C2          1.1833    2.0380    0.0017 C.2       1 <0>        -0.1297
      3 C3          2.3426    1.3358   -0.0131 C.2       1 <0>        -0.1332
      4 S1          1.7535   -0.3495   -0.0166 S.3       1 <0>         0.0391
      5 C4          0.0021   -0.0041    0.0020 C.2       1 <0>        -0.1741
      6 C5          3.7608    1.8454   -0.0244 C.3       1 <0>         0.2985
      7 C6          4.3815    1.7054    1.3425 C.2       1 <0>        -0.2448
      8 C7          5.4240    0.8994    1.2375 C.2       1 <0>         0.1491
      9 C8          6.3067    0.5172    2.4082 C.3       1 <0>        -0.0596
     10 C9          6.0680    1.5119    3.5482 C.3       1 <0>        -0.1152
     11 C10         4.5632    1.6398    3.8043 C.3       1 <0>        -0.1209
     12 C11         3.9122    2.3595    2.6174 C.3       1 <0>        -0.0361
     13 N1          5.5904    0.4646   -0.0656 N.pl3     1 <0>        -0.5676
     14 N2          4.6016    1.0077   -0.8971 N.pl3     1 <0>        -0.3737
     15 C12         4.4514    0.8059   -2.2211 C.2       1 <0>         0.5816
     16 S2          3.1696    1.5669   -3.0630 S.2       1 <0>        -0.5877
     17 N3          5.3103    0.0050   -2.8824 N.pl3     1 <0>        -0.8069
     18 H1         -0.9542    1.8866    0.0258 H         1 <0>         0.1334
     19 H2          1.1967    3.1179    0.0070 H         1 <0>         0.1328
     20 H3         -0.8275   -0.6955    0.0065 H         1 <0>         0.1830
     21 H4          3.7884    2.8845   -0.3525 H         1 <0>         0.1197
     22 H5          6.0553   -0.4893    2.7425 H         1 <0>         0.0882
     23 H6          7.3529    0.5534    2.1044 H         1 <0>         0.0822
     24 H7          6.5616    1.1544    4.4520 H         1 <0>         0.0762
     25 H8          6.4740    2.4852    3.2726 H         1 <0>         0.0712
     26 H9          4.1262    0.6472    3.9125 H         1 <0>         0.0669
     27 H10         4.3960    2.2143    4.7154 H         1 <0>         0.0731
     28 H11         4.2069    3.4089    2.6203 H         1 <0>         0.0740
     29 H12         2.8276    2.2810    2.6912 H         1 <0>         0.0753
     30 H13         6.2941   -0.1334   -0.3625 H         1 <0>         0.4274
     31 H14         6.0365   -0.4262   -2.4054 H         1 <0>         0.3909
     32 H15         5.2021   -0.1403   -3.8354 H         1 <0>         0.4363
@<TRIPOS>BOND
     1    1    5 2
     2    1    2 1
     3    1   18 1
     4    2    3 2
     5    2   19 1
     6    3    4 1
     7    3    6 1
     8    4    5 1
     9    5   20 1
    10    6   14 1
    11    6    7 1
    12    6   21 1
    13    7   12 1
    14    7    8 2
    15    8    9 1
    16    8   13 1
    17    9   10 1
    18    9   22 1
    19    9   23 1
    20   10   11 1
    21   10   24 1
    22   10   25 1
    23   11   12 1
    24   11   26 1
    25   11   27 1
    26   12   28 1
    27   12   29 1
    28   13   14 1
    29   13   30 1
    30   14   15 1
    31   15   16 2
    32   15   17 1
    33   17   31 1
    34   17   32 1
@<TRIPOS>MOLECULE
CHEMBL466872
   30    32     0     0     0
SMALL
USER_CHARGES

@<TRIPOS>ATOM
      1 C1         -0.0167    1.3796    0.0096 C.ar      1 <0>        -0.1168
      2 C2          1.1681    2.0945    0.0022 C.ar      1 <0>        -0.1196
      3 C3          2.3774    1.4316   -0.0134 C.ar      1 <0>        -0.1066
      4 C4          2.4043    0.0344   -0.0212 C.ar      1 <0>        -0.0616
      5 C5          1.2038   -0.6807   -0.0131 C.ar      1 <0>        -0.1122
      6 C6          0.0021   -0.0041    0.0020 C.ar      1 <0>        -0.1186
      7 C7          3.6925   -0.6813   -0.0384 C.2       1 <0>        -0.1008
      8 C8          3.7145   -2.0239   -0.0458 C.2       1 <0>        -0.1072
      9 C9          5.0025   -2.7395   -0.0629 C.ar      1 <0>        -0.0867
     10 C10         6.2046   -2.0228   -0.0656 C.ar      1 <0>        -0.0400
     11 C11         7.4139   -2.6841   -0.0811 C.ar      1 <0>        -0.1438
     12 C12         7.4566   -4.0743   -0.0943 C.ar      1 <0>         0.1909
     13 C13         6.2518   -4.7987   -0.0917 C.ar      1 <0>        -0.2350
     14 C14         5.0288   -4.1350   -0.0707 C.ar      1 <0>         0.0068
     15 C15         6.6196   -6.2276   -0.1086 C.2       1 <0>         0.3900
     16 O1          5.8731   -7.1843   -0.1125 O.2       1 <0>        -0.3653
     17 C16         8.1193   -6.2368   -0.1208 C.2       1 <0>         0.4942
     18 O2          8.8301   -7.2198   -0.1361 O.2       1 <0>        -0.4442
     19 N1          8.5324   -4.9580   -0.1116 N.am      1 <0>        -0.6502
     20 H1         -0.9606    1.9041    0.0260 H         1 <0>         0.1230
     21 H2          1.1458    3.1743    0.0082 H         1 <0>         0.1244
     22 H3          3.3013    1.9908   -0.0200 H         1 <0>         0.1249
     23 H4          1.2169   -1.7606   -0.0194 H         1 <0>         0.1256
     24 H5         -0.9266   -0.5554    0.0079 H         1 <0>         0.1244
     25 H6          4.6187   -0.1260   -0.0449 H         1 <0>         0.1242
     26 H7          2.7882   -2.5792   -0.0392 H         1 <0>         0.1279
     27 H8          6.1846   -0.9430   -0.0558 H         1 <0>         0.1427
     28 H9          8.3343   -2.1190   -0.0834 H         1 <0>         0.1403
     29 H10         4.1060   -4.6961   -0.0646 H         1 <0>         0.1426
     30 H11         9.4631   -4.6849   -0.1168 H         1 <0>         0.4267
@<TRIPOS>BOND
     1    1    6 ar
     2    1    2 ar
     3    1   20 1
     4    2    3 ar
     5    2   21 1
     6    3    4 ar
     7    3   22 1
     8    4    5 ar
     9    4    7 1
    10    5    6 ar
    11    5   23 1
    12    6   24 1
    13    7    8 2
    14    7   25 1
    15    8    9 1
    16    8   26 1
    17    9   14 ar
    18    9   10 ar
    19   10   11 ar
    20   10   27 1
    21   11   12 ar
    22   11   28 1
    23   12   19 1
    24   12   13 ar
    25   13   14 ar
    26   13   15 1
    27   14   29 1
    28   15   16 2
    29   15   17 1
    30   17   18 2
    31   17   19 am
    32   19   30 1
@<TRIPOS>MOLECULE
CHEMBL14210
   28    29     0     0     0
SMALL
USER_CHARGES

@<TRIPOS>ATOM
      1 C1         -0.0167    1.3781    0.0096 C.ar      1 <0>        -0.1075
      2 C2          1.1709    2.0855    0.0021 C.ar      1 <0>        -0.1144
      3 C3          2.3773    1.4107   -0.0130 C.ar      1 <0>        -0.1118
      4 C4          2.3960    0.0285   -0.0201 C.ar      1 <0>        -0.1074
      5 C5          1.2084   -0.6789   -0.0117 C.ar      1 <0>        -0.1118
      6 C6          0.0021   -0.0041    0.0020 C.ar      1 <0>        -0.1144
      7 C7          3.7112   -0.7071   -0.0376 C.3       1 <0>        -0.0716
      8 C8          4.1714   -0.9633    1.3989 C.3       1 <0>        -0.1105
      9 C9          5.4865   -1.6989    1.3815 C.cat     1 <0>         0.5152
     10 N1          5.5607   -3.0091    1.3685 N.pl3     1 <0>        -0.6324
     11 C10         6.9751   -3.4155    1.3528 C.3       1 <0>         0.0557
     12 C11         7.7284   -2.0691    1.3592 C.3       1 <0>         0.0557
     13 N2          6.6418   -1.0765    1.3725 N.pl3     1 <0>        -0.6324
     14 H1         -0.9591    1.9053    0.0259 H         1 <0>         0.1285
     15 H2          1.1563    3.1654    0.0076 H         1 <0>         0.1283
     16 H3          3.3051    1.9634   -0.0196 H         1 <0>         0.1231
     17 H4          1.2231   -1.7588   -0.0176 H         1 <0>         0.1231
     18 H5         -0.9258   -0.5567    0.0082 H         1 <0>         0.1283
     19 H6          3.5884   -1.6586   -0.5549 H         1 <0>         0.0869
     20 H7          4.4573   -0.1052   -0.5563 H         1 <0>         0.0870
     21 H8          4.2941   -0.0118    1.9163 H         1 <0>         0.1271
     22 H9          3.4252   -1.5652    1.9176 H         1 <0>         0.1272
     23 H10         7.2184   -3.9968    2.2423 H         1 <0>         0.1269
     24 H11         7.2034   -3.9799    0.4487 H         1 <0>         0.1269
     25 H12         8.3474   -1.9787    2.2517 H         1 <0>         0.1271
     26 H13         8.3324   -1.9618    0.4582 H         1 <0>         0.1267
     27 H14         6.7608   -0.1138    1.3759 H         1 <0>         0.4602
     28 H15         4.8026   -3.6143    1.3697 H         1 <0>         0.4602
@<TRIPOS>BOND
     1    1    6 ar
     2    1    2 ar
     3    1   14 1
     4    2    3 ar
     5    2   15 1
     6    3    4 ar
     7    3   16 1
     8    4    5 ar
     9    4    7 1
    10    5    6 ar
    11    5   17 1
    12    6   18 1
    13    7    8 1
    14    7   19 1
    15    7   20 1
    16    8    9 1
    17    8   21 1
    18    8   22 1
    19    9   13 1
    20    9   10 2
    21   10   11 1
    22   10   28 1
    23   11   12 1
    24   11   23 1
    25   11   24 1
    26   12   13 1
    27   12   25 1
    28   12   26 1
    29   13   27 1
@<TRIPOS>MOLECULE
CHEMBL240143
   31    34     0     0     0
SMALL
USER_CHARGES

@<TRIPOS>ATOM
      1 C1         -0.0167    1.3825    0.0096 C.ar      1 <0>        -0.0876
      2 C2          1.1644    2.0978    0.0022 C.ar      1 <0>        -0.0944
      3 C3          2.3814    1.4351   -0.0134 C.ar      1 <0>        -0.0405
      4 C4          2.4140    0.0463   -0.0211 C.ar      1 <0>        -0.1411
      5 C5          1.2126   -0.6828   -0.0131 C.ar      1 <0>        -0.0432
      6 C6          0.0021   -0.0041    0.0020 C.ar      1 <0>        -0.0584
      7 C7          1.5371   -2.1311   -0.0235 C.ar      1 <0>         0.2359
      8 C8          2.9386   -2.2800   -0.0379 C.ar      1 <0>        -0.0651
      9 N1          3.4612   -3.4982   -0.0488 N.ar      1 <0>        -0.1065
     10 N2          2.6934   -4.5325   -0.0461 N.ar      1 <0>        -0.2678
     11 C9          1.3687   -4.4170   -0.0326 C.ar      1 <0>         0.3303
     12 N3          0.7830   -3.2216   -0.0209 N.ar      1 <0>        -0.4541
     13 C10         0.5311   -5.6384   -0.0301 C.ar      1 <0>        -0.0549
     14 C11        -0.8602   -5.5337   -0.0217 C.ar      1 <0>        -0.0146
     15 C12        -1.6349   -6.6751   -0.0194 C.ar      1 <0>        -0.1220
     16 C13        -1.0349   -7.9220   -0.0253 C.ar      1 <0>        -0.0257
     17 C14         0.3440   -8.0325   -0.0336 C.ar      1 <0>        -0.0559
     18 C15         1.1298   -6.8981   -0.0418 C.ar      1 <0>        -0.0022
     19 N4          0.9778   -9.3701   -0.0399 N.pl3     1 <0>         0.0315
     20 O1          0.2905  -10.3647   -0.0378 O.2       1 <0>        -0.1499
     21 O2          2.1828   -9.4680   -0.0472 O.3       1 <0>        -0.1469
     22 C16         3.5359   -0.9242   -0.0370 C.2       1 <0>         0.4687
     23 O3          4.7203   -0.6576   -0.0478 O.2       1 <0>        -0.3726
     24 H1         -0.9611    1.9062    0.0260 H         1 <0>         0.1458
     25 H2          1.1396    3.1775    0.0082 H         1 <0>         0.1470
     26 H3          3.3034    1.9975   -0.0199 H         1 <0>         0.1474
     27 H4         -0.9261   -0.5563    0.0082 H         1 <0>         0.1443
     28 H5         -1.3296   -4.5611   -0.0167 H         1 <0>         0.1592
     29 H6         -2.7119   -6.5954   -0.0125 H         1 <0>         0.1599
     30 H7         -1.6457   -8.8127   -0.0231 H         1 <0>         0.1625
     31 H8          2.2062   -6.9856   -0.0532 H         1 <0>         0.1710
@<TRIPOS>BOND
     1    1    6 ar
     2    1    2 ar
     3    1   24 1
     4    2    3 ar
     5    2   25 1
     6    3    4 ar
     7    3   26 1
     8    4   22 1
     9    4    5 ar
    10    5    6 ar
    11    5    7 1
    12    6   27 1
    13    7   12 ar
    14    7    8 ar
    15    8    9 ar
    16    8   22 1
    17    9   10 ar
    18   10   11 ar
    19   11   12 ar
    20   11   13 1
    21   13   18 ar
    22   13   14 ar
    23   14   15 ar
    24   14   28 1
    25   15   16 ar
    26   15   29 1
    27   16   17 ar
    28   16   30 1
    29   17   18 ar
    30   17   19 1
    31   18   31 1
    32   19   20 2
    33   19   21 1
    34   22   23 2
@<TRIPOS>MOLECULE
CHEMBL147569
   88    89     0     0     0
SMALL
USER_CHARGES

@<TRIPOS>ATOM
      1 C1          0.9306    1.9212   -1.8026 C.3       1 <0>        -0.1407
      2 C2          1.1425    0.4957   -2.3162 C.3       1 <0>        -0.1473
      3 C3          0.5892   -0.4862   -1.3157 C.2       1 <0>         0.5238
      4 O1         -0.0066   -0.0853   -0.3383 O.2       1 <0>        -0.5373
      5 N1          0.7565   -1.8098   -1.5071 N.am      1 <0>        -0.6131
      6 C4          1.5698   -2.2910   -2.6265 C.3       1 <0>         0.1041
      7 C5          3.0251   -2.4319   -2.1760 C.3       1 <0>        -0.1380
      8 C6          3.8745   -2.9345   -3.3451 C.3       1 <0>        -0.1200
      9 C7          5.3299   -3.0754   -2.8946 C.3       1 <0>        -0.1190
     10 C8          6.1793   -3.5780   -4.0637 C.3       1 <0>        -0.1216
     11 C9          7.6347   -3.7189   -3.6132 C.3       1 <0>        -0.1209
     12 C10         8.4841   -4.2215   -4.7823 C.3       1 <0>        -0.1217
     13 C11         9.9394   -4.3624   -4.3317 C.3       1 <0>        -0.1214
     14 C12        10.7888   -4.8650   -5.5008 C.3       1 <0>        -0.1214
     15 C13        12.2442   -5.0059   -5.0503 C.3       1 <0>        -0.1185
     16 C14        13.0936   -5.5085   -6.2194 C.3       1 <0>        -0.1361
     17 C15        14.5490   -5.6494   -5.7689 C.3       1 <0>         0.0823
     18 N2         15.3623   -6.1306   -6.8883 N.pl3     1 <0>        -0.6581
     19 C16        16.6414   -6.3239   -6.7288 C.cat     1 <0>         0.7378
     20 N3         17.2273   -6.0761   -5.5101 N.pl3     1 <0>        -0.8120
     21 N4         17.4047   -6.7755   -7.7794 N.pl3     1 <0>        -0.8141
     22 C17         0.1249   -2.7672   -0.5957 C.3       1 <0>         0.1440
     23 C18        -1.3895   -2.5401   -0.5832 C.3       1 <0>        -0.1683
     24 C19        -2.0338   -3.4893    0.4294 C.3       1 <0>         0.0012
     25 N5         -1.4874   -3.2284    1.7665 N.4       1 <0>        -0.3845
     26 C20        -0.0476   -3.5132    1.7804 C.3       1 <0>        -0.0055
     27 C21         0.6732   -2.5650    0.8199 C.3       1 <0>        -0.1671
     28 C22        -2.1646   -4.0876    2.7468 C.3       1 <0>        -0.0059
     29 C23        -1.6859   -3.7298    4.1553 C.3       1 <0>        -0.0997
     30 C24        -2.3807   -4.6113    5.1610 C.ar      1 <0>        -0.1083
     31 C25        -3.5840   -4.2143    5.7135 C.ar      1 <0>        -0.1098
     32 C26        -4.2212   -5.0228    6.6359 C.ar      1 <0>        -0.1130
     33 C27        -3.6554   -6.2287    7.0056 C.ar      1 <0>        -0.1040
     34 C28        -2.4526   -6.6262    6.4524 C.ar      1 <0>        -0.1143
     35 C29        -1.8174   -5.8196    5.5267 C.ar      1 <0>        -0.1110
     36 H1         -0.1354    2.1035   -1.6659 H         1 <0>         0.0639
     37 H2          1.4453    2.0444   -0.8497 H         1 <0>         0.0610
     38 H3          1.3308    2.6314   -2.5262 H         1 <0>         0.0671
     39 H4          0.6277    0.3725   -3.2690 H         1 <0>         0.0986
     40 H5          2.2084    0.3134   -2.4528 H         1 <0>         0.0950
     41 H6          1.1962   -3.2603   -2.9567 H         1 <0>         0.0842
     42 H7          1.5117   -1.5794   -3.4501 H         1 <0>         0.0895
     43 H8          3.3987   -1.4626   -1.8458 H         1 <0>         0.0676
     44 H9          3.0833   -3.1435   -1.3524 H         1 <0>         0.0648
     45 H10         3.5010   -3.9038   -3.6753 H         1 <0>         0.0654
     46 H11         3.8164   -2.2229   -4.1687 H         1 <0>         0.0674
     47 H12         5.7035   -2.1061   -2.5644 H         1 <0>         0.0623
     48 H13         5.3880   -3.7870   -2.0709 H         1 <0>         0.0604
     49 H14         5.8057   -4.5473   -4.3939 H         1 <0>         0.0618
     50 H15         6.1212   -2.8664   -4.8873 H         1 <0>         0.0630
     51 H16         8.0083   -2.7496   -3.2829 H         1 <0>         0.0616
     52 H17         7.6928   -4.4305   -2.7895 H         1 <0>         0.0606
     53 H18         8.1105   -5.1908   -5.1125 H         1 <0>         0.0618
     54 H19         8.4260   -3.5099   -5.6059 H         1 <0>         0.0625
     55 H20        10.3130   -3.3931   -4.0015 H         1 <0>         0.0631
     56 H21         9.9976   -5.0740   -3.5081 H         1 <0>         0.0626
     57 H22        10.4153   -5.8343   -5.8311 H         1 <0>         0.0652
     58 H23        10.7307   -4.1534   -6.3245 H         1 <0>         0.0656
     59 H24        12.6178   -4.0366   -4.7201 H         1 <0>         0.0713
     60 H25        12.3023   -5.7175   -4.2267 H         1 <0>         0.0709
     61 H26        12.7200   -6.4778   -6.5497 H         1 <0>         0.0826
     62 H27        13.0355   -4.7969   -7.0431 H         1 <0>         0.0829
     63 H28        14.9226   -4.6801   -5.4387 H         1 <0>         0.1000
     64 H29        14.6071   -6.3610   -4.9453 H         1 <0>         0.0998
     65 H30        16.6888   -5.7574   -4.7689 H         1 <0>         0.4371
     66 H31        18.1792   -6.2199   -5.3913 H         1 <0>         0.4390
     67 H32        16.9913   -6.9503   -8.6393 H         1 <0>         0.4386
     68 H33        18.3566   -6.9193   -7.6607 H         1 <0>         0.4396
     69 H34         0.3396   -3.7829   -0.9280 H         1 <0>         0.1016
     70 H35        -1.6005   -1.5087   -0.3007 H         1 <0>         0.1101
     71 H36        -1.7952   -2.7366   -1.5756 H         1 <0>         0.1114
     72 H37        -3.1121   -3.3303    0.4406 H         1 <0>         0.1337
     73 H38        -1.8224   -4.5203    0.1458 H         1 <0>         0.1284
     74 H39         0.3406   -3.3720    2.7892 H         1 <0>         0.1338
     75 H40         0.1215   -4.5437    1.4681 H         1 <0>         0.1281
     76 H41         1.7419   -2.7793    0.8303 H         1 <0>         0.1092
     77 H42         0.5050   -1.5341    1.1315 H         1 <0>         0.1116
     78 H43        -3.2419   -3.9362    2.6798 H         1 <0>         0.1330
     79 H44        -1.9307   -5.1315    2.5378 H         1 <0>         0.1307
     80 H45        -0.6086   -3.8813    4.2223 H         1 <0>         0.0938
     81 H46        -1.9198   -2.6859    4.3643 H         1 <0>         0.0953
     82 H47        -4.0261   -3.2722    5.4246 H         1 <0>         0.1245
     83 H48        -5.1610   -4.7123    7.0681 H         1 <0>         0.1300
     84 H49        -4.1529   -6.8601    7.7269 H         1 <0>         0.1301
     85 H50        -2.0103   -7.5681    6.7415 H         1 <0>         0.1291
     86 H51        -0.8795   -6.1318    5.0918 H         1 <0>         0.1226
     87 H52        14.9489   -6.3055   -7.7483 H         1 <0>         0.4392
     88 H53        -1.6401   -2.2607    2.0082 H         1 <0>         0.4263
@<TRIPOS>BOND
     1    1    2 1
     2    1   36 1
     3    1   37 1
     4    1   38 1
     5    2    3 1
     6    2   39 1
     7    2   40 1
     8    3    4 2
     9    3    5 am
    10    5    6 1
    11    5   22 1
    12    6    7 1
    13    6   41 1
    14    6   42 1
    15    7    8 1
    16    7   43 1
    17    7   44 1
    18    8    9 1
    19    8   45 1
    20    8   46 1
    21    9   10 1
    22    9   47 1
    23    9   48 1
    24   10   11 1
    25   10   49 1
    26   10   50 1
    27   11   12 1
    28   11   51 1
    29   11   52 1
    30   12   13 1
    31   12   53 1
    32   12   54 1
    33   13   14 1
    34   13   55 1
    35   13   56 1
    36   14   15 1
    37   14   57 1
    38   14   58 1
    39   15   16 1
    40   15   59 1
    41   15   60 1
    42   16   17 1
    43   16   61 1
    44   16   62 1
    45   17   18 1
    46   17   63 1
    47   17   64 1
    48   18   19 2
    49   18   87 1
    50   19   20 1
    51   19   21 1
    52   20   65 1
    53   20   66 1
    54   21   67 1
    55   21   68 1
    56   22   27 1
    57   22   23 1
    58   22   69 1
    59   23   24 1
    60   23   70 1
    61   23   71 1
    62   24   25 1
    63   24   72 1
    64   24   73 1
    65   25   26 1
    66   25   28 1
    67   25   88 1
    68   26   27 1
    69   26   74 1
    70   26   75 1
    71   27   76 1
    72   27   77 1
    73   28   29 1
    74   28   78 1
    75   28   79 1
    76   29   30 1
    77   29   80 1
    78   29   81 1
    79   30   35 ar
    80   30   31 ar
    81   31   32 ar
    82   31   82 1
    83   32   33 ar
    84   32   83 1
    85   33   34 ar
    86   33   84 1
    87   34   35 ar
    88   34   85 1
    89   35   86 1
@<TRIPOS>MOLECULE
CHEMBL389501
   35    37     0     0     0
SMALL
USER_CHARGES

@<TRIPOS>ATOM
      1 C1         -0.0184    1.5028    0.0103 C.3       1 <0>        -0.1226
      2 C2          0.0021   -0.0041    0.0020 C.ar      1 <0>        -0.0588
      3 C3          0.0057   -0.6860   -1.2020 C.ar      1 <0>        -0.1250
      4 C4          0.0249   -2.0651   -1.2172 C.ar      1 <0>        -0.0702
      5 C5          0.0406   -2.7733   -0.0132 C.ar      1 <0>        -0.0536
      6 C6          0.0368   -2.0782    1.1984 C.ar      1 <0>        -0.0770
      7 C7          0.0229   -0.6990    1.1984 C.ar      1 <0>        -0.1231
      8 C8          0.0606   -4.2480   -0.0213 C.2       1 <0>         0.1764
      9 N1          0.0708   -4.9853   -1.0774 N.2       1 <0>        -0.2719
     10 N2          0.0893   -6.3539   -0.8162 N.pl3     1 <0>        -0.4344
     11 C9          0.0917   -6.5601    0.6408 C.3       1 <0>         0.2129
     12 C10         0.0787   -5.1270    1.2087 C.3       1 <0>        -0.1349
     13 C11         1.3410   -7.2844    1.0718 C.2       1 <0>        -0.0218
     14 C12         1.4111   -8.2357    2.0202 C.2       1 <0>        -0.1659
     15 C13         2.7645   -8.6372    2.0984 C.2       1 <0>        -0.2082
     16 C14         3.4404   -7.9073    1.1930 C.2       1 <0>        -0.0319
     17 O1          2.5721   -7.0937    0.5702 O.3       1 <0>        -0.1719
     18 C15         0.1024   -7.3294   -1.7461 C.2       1 <0>         0.6060
     19 S1          0.1239   -8.9718   -1.2635 S.2       1 <0>        -0.5978
     20 N3          0.0985   -7.0119   -3.0560 N.pl3     1 <0>        -0.7884
     21 H1          1.0042    1.8801    0.0026 H         1 <0>         0.0764
     22 H2         -0.5455    1.8639   -0.8728 H         1 <0>         0.0706
     23 H3         -0.5286    1.8543    0.9071 H         1 <0>         0.0711
     24 H4         -0.0068   -0.1371   -2.1320 H         1 <0>         0.1301
     25 H5          0.0273   -2.5961   -2.1576 H         1 <0>         0.1316
     26 H6          0.0488   -2.6194    2.1330 H         1 <0>         0.1320
     27 H7          0.0240   -0.1602    2.1344 H         1 <0>         0.1319
     28 H8         -0.7975   -7.1083    0.9521 H         1 <0>         0.1373
     29 H9          0.9753   -4.9395    1.7995 H         1 <0>         0.1188
     30 H10        -0.8166   -4.9638    1.8086 H         1 <0>         0.1226
     31 H11         0.5911   -8.6189    2.6094 H         1 <0>         0.1496
     32 H12         3.1766   -9.3861    2.7585 H         1 <0>         0.1496
     33 H13         4.5008   -7.9680    0.9973 H         1 <0>         0.2013
     34 H14         0.0863   -6.0813   -3.3294 H         1 <0>         0.4063
     35 H15         0.1079   -7.7140   -3.7252 H         1 <0>         0.4331
@<TRIPOS>BOND
     1    1    2 1
     2    1   21 1
     3    1   22 1
     4    1   23 1
     5    2    7 ar
     6    2    3 ar
     7    3    4 ar
     8    3   24 1
     9    4    5 ar
    10    4   25 1
    11    5    6 ar
    12    5    8 1
    13    6    7 ar
    14    6   26 1
    15    7   27 1
    16    8   12 1
    17    8    9 2
    18    9   10 1
    19   10   11 1
    20   10   18 1
    21   11   12 1
    22   11   13 1
    23   11   28 1
    24   12   29 1
    25   12   30 1
    26   13   17 1
    27   13   14 2
    28   14   15 1
    29   14   31 1
    30   15   16 2
    31   15   32 1
    32   16   17 1
    33   16   33 1
    34   18   19 2
    35   18   20 1
    36   20   34 1
    37   20   35 1
@<TRIPOS>MOLECULE
CHEMBL389501__1
   35    37     0     0     0
SMALL
USER_CHARGES

@<TRIPOS>ATOM
      1 C1         -0.0184    1.5028    0.0103 C.3       1 <0>        -0.1226
      2 C2          0.0021   -0.0041    0.0020 C.ar      1 <0>        -0.0588
      3 C3          0.0057   -0.6860   -1.2020 C.ar      1 <0>        -0.1250
      4 C4          0.0249   -2.0651   -1.2172 C.ar      1 <0>        -0.0701
      5 C5          0.0406   -2.7733   -0.0132 C.ar      1 <0>        -0.0536
      6 C6          0.0368   -2.0782    1.1984 C.ar      1 <0>        -0.0770
      7 C7          0.0229   -0.6990    1.1984 C.ar      1 <0>        -0.1231
      8 C8          0.0606   -4.2480   -0.0213 C.2       1 <0>         0.1764
      9 N1          0.0708   -4.9853   -1.0774 N.2       1 <0>        -0.2719
     10 N2          0.0893   -6.3539   -0.8162 N.pl3     1 <0>        -0.4343
     11 C9          0.0917   -6.5601    0.6408 C.3       1 <0>         0.2127
     12 C10         0.0787   -5.1270    1.2087 C.3       1 <0>        -0.1351
     13 C11        -1.1377   -7.3180    1.0712 C.2       1 <0>        -0.0208
     14 C12        -1.1845   -8.2634    2.0270 C.2       1 <0>        -0.1664
     15 C13        -2.5257   -8.7046    2.1012 C.2       1 <0>        -0.2082
     16 C14        -3.2182   -8.0025    1.1864 C.2       1 <0>        -0.0316
     17 O1         -2.3734   -7.1601    0.5695 O.3       1 <0>        -0.1720
     18 C15         0.1024   -7.3294   -1.7461 C.2       1 <0>         0.6060
     19 S1          0.1239   -8.9718   -1.2635 S.2       1 <0>        -0.5977
     20 N3          0.0985   -7.0119   -3.0560 N.pl3     1 <0>        -0.7884
     21 H1          1.0042    1.8801    0.0026 H         1 <0>         0.0766
     22 H2         -0.5455    1.8639   -0.8728 H         1 <0>         0.0705
     23 H3         -0.5286    1.8543    0.9071 H         1 <0>         0.0710
     24 H4         -0.0068   -0.1371   -2.1320 H         1 <0>         0.1301
     25 H5          0.0273   -2.5961   -2.1576 H         1 <0>         0.1316
     26 H6          0.0488   -2.6194    2.1330 H         1 <0>         0.1319
     27 H7          0.0240   -0.1602    2.1344 H         1 <0>         0.1319
     28 H8          0.9953   -7.0840    0.9526 H         1 <0>         0.1367
     29 H9          0.9753   -4.9395    1.7995 H         1 <0>         0.1230
     30 H10        -0.8166   -4.9638    1.8086 H         1 <0>         0.1185
     31 H11        -0.3565   -8.6178    2.6228 H         1 <0>         0.1496
     32 H12        -2.9187   -9.4606    2.7649 H         1 <0>         0.1496
     33 H13        -4.2750   -8.0972    0.9849 H         1 <0>         0.2013
     34 H14         0.0863   -6.0813   -3.3294 H         1 <0>         0.4063
     35 H15         0.1079   -7.7140   -3.7252 H         1 <0>         0.4331
@<TRIPOS>BOND
     1    1    2 1
     2    1   21 1
     3    1   22 1
     4    1   23 1
     5    2    7 ar
     6    2    3 ar
     7    3    4 ar
     8    3   24 1
     9    4    5 ar
    10    4   25 1
    11    5    6 ar
    12    5    8 1
    13    6    7 ar
    14    6   26 1
    15    7   27 1
    16    8   12 1
    17    8    9 2
    18    9   10 1
    19   10   11 1
    20   10   18 1
    21   11   12 1
    22   11   13 1
    23   11   28 1
    24   12   29 1
    25   12   30 1
    26   13   17 1
    27   13   14 2
    28   14   15 1
    29   14   31 1
    30   15   16 2
    31   15   32 1
    32   16   17 1
    33   16   33 1
    34   18   19 2
    35   18   20 1
    36   20   34 1
    37   20   35 1
@<TRIPOS>MOLECULE
CHEMBL1213911
   34    36     0     0     0
SMALL
USER_CHARGES

@<TRIPOS>ATOM
      1 C1         -0.0173    1.4248    0.0099 C.3       1 <0>         0.0253
      2 O1          0.0021   -0.0041    0.0020 O.3       1 <0>        -0.3136
      3 C2          0.6058   -0.6071   -1.0557 C.ar      1 <0>         0.1367
      4 C3          1.1731    0.1628   -2.0627 C.ar      1 <0>        -0.1977
      5 C4          1.7881   -0.4452   -3.1412 C.ar      1 <0>        -0.0694
      6 C5          1.8427   -1.8217   -3.2240 C.ar      1 <0>        -0.1483
      7 C6          1.2757   -2.6037   -2.2165 C.ar      1 <0>        -0.0038
      8 C7          0.6600   -1.9887   -1.1261 C.ar      1 <0>        -0.1266
      9 C8          1.3320   -4.0790   -2.3020 C.2       1 <0>         0.1372
     10 C9          0.7792   -4.8366   -1.3311 C.2       1 <0>        -0.1992
     11 S1          1.1187   -6.4915   -1.9092 S.3       1 <0>         0.0094
     12 C10         1.9785   -6.0570   -3.4130 C.2       1 <0>         0.4044
     13 N1          1.9391   -4.6830   -3.3675 N.pl3     1 <0>        -0.6116
     14 N2          2.5089   -6.8482   -4.3315 N.2       1 <0>        -0.3995
     15 N3          2.4381   -8.1293   -4.1979 N.2       1 <0>        -0.3222
     16 C11         2.9629   -8.9123   -5.1067 C.2       1 <0>         0.1956
     17 C12         2.8826  -10.3653   -4.9552 C.2       1 <0>        -0.1238
     18 C13         3.3716  -11.3594   -5.7885 C.2       1 <0>        -0.1252
     19 C14         3.1694  -12.6717   -5.4267 C.2       1 <0>        -0.1612
     20 C15         2.5038  -12.9496   -4.2763 C.2       1 <0>        -0.1770
     21 S2          2.1361  -11.3211   -3.6449 S.3       1 <0>         0.0996
     22 H1          1.0053    1.8021    0.0021 H         1 <0>         0.0581
     23 H2         -0.5445    1.7859   -0.8732 H         1 <0>         0.0581
     24 H3         -0.5275    1.7763    0.9067 H         1 <0>         0.1043
     25 H4          1.1333    1.2405   -2.0031 H         1 <0>         0.1342
     26 H5          2.2269    0.1589   -3.9216 H         1 <0>         0.1332
     27 H6          2.3236   -2.2935   -4.0681 H         1 <0>         0.1225
     28 H7          0.2234   -2.5886   -0.3413 H         1 <0>         0.1414
     29 H8          0.2642   -4.5226   -0.4353 H         1 <0>         0.2063
     30 H9          3.4550   -8.4856   -5.9682 H         1 <0>         0.1299
     31 H10         3.8974  -11.1104   -6.6984 H         1 <0>         0.1396
     32 H11         3.5361  -13.4724   -6.0518 H         1 <0>         0.1368
     33 H12         2.2616  -13.9118   -3.8497 H         1 <0>         0.1870
     34 H13         2.3373   -4.1530   -4.0756 H         1 <0>         0.4194
@<TRIPOS>BOND
     1    1    2 1
     2    1   22 1
     3    1   23 1
     4    1   24 1
     5    2    3 1
     6    3    8 ar
     7    3    4 ar
     8    4    5 ar
     9    4   25 1
    10    5    6 ar
    11    5   26 1
    12    6    7 ar
    13    6   27 1
    14    7    8 ar
    15    7    9 1
    16    8   28 1
    17    9   13 1
    18    9   10 2
    19   10   11 1
    20   10   29 1
    21   11   12 1
    22   12   13 1
    23   12   14 2
    24   13   34 1
    25   14   15 1
    26   15   16 2
    27   16   17 1
    28   16   30 1
    29   17   21 1
    30   17   18 2
    31   18   19 1
    32   18   31 1
    33   19   20 2
    34   19   32 1
    35   20   21 1
    36   20   33 1
@<TRIPOS>MOLECULE
CHEMBL1213911__1
   34    36     0     0     0
SMALL
USER_CHARGES

@<TRIPOS>ATOM
      1 C1         -0.0173    1.4248    0.0099 C.3       1 <0>         0.0268
      2 O1          0.0021   -0.0041    0.0020 O.3       1 <0>        -0.3172
      3 C2         -1.2003   -0.6375    0.0101 C.ar      1 <0>         0.1234
      4 C3         -2.3748    0.1030    0.0196 C.ar      1 <0>        -0.2033
      5 C4         -3.6000   -0.5369    0.0283 C.ar      1 <0>        -0.0798
      6 C5         -3.6628   -1.9160    0.0271 C.ar      1 <0>        -0.1399
      7 C6         -2.4885   -2.6668    0.0172 C.ar      1 <0>         0.0146
      8 C7         -1.2539   -2.0213    0.0032 C.ar      1 <0>        -0.1186
      9 C8         -2.5530   -4.1486    0.0164 C.2       1 <0>         0.1324
     10 C9         -3.7579   -4.7863   -0.0826 C.2       1 <0>        -0.2300
     11 S1         -3.2342   -6.4952   -0.0332 S.3       1 <0>         0.0513
     12 C10        -1.4796   -6.1870    0.1129 C.2       1 <0>         0.3883
     13 N1         -1.4430   -4.8661    0.1062 N.2       1 <0>        -0.5562
     14 N2         -0.4361   -7.0915    0.2037 N.pl3     1 <0>        -0.5179
     15 N3         -0.6984   -8.4676    0.1860 N.2       1 <0>        -0.2336
     16 C11         0.2824   -9.3179    0.2713 C.2       1 <0>         0.1642
     17 C12         0.0077  -10.7588    0.2528 C.2       1 <0>        -0.1390
     18 C13         0.8951  -11.8173    0.3366 C.2       1 <0>        -0.1083
     19 C14         0.3913  -13.0974    0.2969 C.2       1 <0>        -0.1663
     20 C15        -0.9489  -13.2809    0.1779 C.2       1 <0>        -0.1645
     21 S2         -1.5594  -11.6044    0.1242 S.3       1 <0>         0.1111
     22 H1          1.0053    1.8021    0.0021 H         1 <0>         0.1007
     23 H2         -0.5445    1.7859   -0.8732 H         1 <0>         0.0559
     24 H3         -0.5275    1.7763    0.9067 H         1 <0>         0.0559
     25 H4         -2.3310    1.1821    0.0205 H         1 <0>         0.1291
     26 H5         -4.5106    0.0437    0.0363 H         1 <0>         0.1297
     27 H6         -4.6217   -2.4130    0.0343 H         1 <0>         0.1282
     28 H7         -0.3411   -2.5985   -0.0090 H         1 <0>         0.1393
     29 H8         -4.7519   -4.3723   -0.1667 H         1 <0>         0.2005
     30 H9          0.4768   -6.7728    0.2795 H         1 <0>         0.4083
     31 H10         1.2989   -8.9630    0.3558 H         1 <0>         0.1425
     32 H11         1.9569  -11.6432    0.4305 H         1 <0>         0.1418
     33 H12         1.0550  -13.9471    0.3595 H         1 <0>         0.1404
     34 H13        -1.5045  -14.2059    0.1321 H         1 <0>         0.1903
@<TRIPOS>BOND
     1    1    2 1
     2    1   22 1
     3    1   23 1
     4    1   24 1
     5    2    3 1
     6    3    8 ar
     7    3    4 ar
     8    4    5 ar
     9    4   25 1
    10    5    6 ar
    11    5   26 1
    12    6    7 ar
    13    6   27 1
    14    7    8 ar
    15    7    9 1
    16    8   28 1
    17    9   13 1
    18    9   10 2
    19   10   11 1
    20   10   29 1
    21   11   12 1
    22   12   13 2
    23   12   14 1
    24   14   15 1
    25   14   30 1
    26   15   16 2
    27   16   17 1
    28   16   31 1
    29   17   21 1
    30   17   18 2
    31   18   19 1
    32   18   32 1
    33   19   20 2
    34   19   33 1
    35   20   21 1
    36   20   34 1
@<TRIPOS>MOLECULE
CHEMBL589765
   41    43     0     0     0
SMALL
USER_CHARGES

@<TRIPOS>ATOM
      1 C1         -0.0184    1.5028    0.0103 C.3       1 <0>        -0.1174
      2 C2          0.0021   -0.0041    0.0020 C.ar      1 <0>        -0.0887
      3 C3          0.0057   -0.6888   -1.1991 C.ar      1 <0>        -0.1046
      4 C4          0.0245   -2.0707   -1.2067 C.ar      1 <0>        -0.1186
      5 C5          0.0400   -2.7685   -0.0132 C.ar      1 <0>        -0.0966
      6 C6          0.0373   -2.0840    1.1875 C.ar      1 <0>        -0.1023
      7 C7          0.0229   -0.7015    1.1951 C.ar      1 <0>        -0.0918
      8 C8          0.0538   -2.8445    2.4885 C.3       1 <0>         0.1244
      9 O1          1.4061   -3.0674    2.8928 O.3       1 <0>        -0.2809
     10 C9          1.5979   -3.7414    4.0487 C.2       1 <0>         0.4807
     11 N1          0.6419   -4.2094    4.8215 N.2       1 <0>        -0.5325
     12 C10         1.1736   -4.8224    5.8810 C.2       1 <0>         0.3497
     13 C11         2.5560   -4.7319    5.7633 C.2       1 <0>        -0.1632
     14 N2          2.8018   -4.0430    4.5849 N.pl3     1 <0>        -0.4065
     15 C12         4.1144   -3.7042    4.0294 C.3       1 <0>         0.0747
     16 C13         3.3688   -5.3034    6.7596 C.2       1 <0>         0.5973
     17 O2          4.5827   -5.2360    6.6777 O.2       1 <0>        -0.5143
     18 N3          2.7896   -5.9265    7.8068 N.am      1 <0>        -0.5513
     19 C14         1.4519   -6.0084    7.9100 C.2       1 <0>         0.7082
     20 O3          0.9648   -6.5779    8.8676 O.2       1 <0>        -0.5306
     21 N4          0.6380   -5.4752    6.9793 N.am      1 <0>        -0.5094
     22 C15        -0.8152   -5.5849    7.1286 C.3       1 <0>         0.0883
     23 C16         3.6313   -6.5232    8.8468 C.3       1 <0>         0.0841
     24 H1          1.0042    1.8801    0.0026 H         1 <0>         0.0727
     25 H2         -0.5455    1.8639   -0.8728 H         1 <0>         0.0689
     26 H3         -0.5286    1.8543    0.9071 H         1 <0>         0.0682
     27 H4         -0.0064   -0.1437   -2.1314 H         1 <0>         0.1259
     28 H5          0.0266   -2.6056   -2.1449 H         1 <0>         0.1277
     29 H6          0.0540   -3.8484   -0.0191 H         1 <0>         0.1257
     30 H7          0.0246   -0.1666    2.1333 H         1 <0>         0.1255
     31 H8         -0.4637   -2.2663    3.2539 H         1 <0>         0.0856
     32 H9         -0.4484   -3.8028    2.3555 H         1 <0>         0.0862
     33 H10         4.4310   -2.7336    4.4112 H         1 <0>         0.0860
     34 H11         4.8396   -4.4637    4.3216 H         1 <0>         0.1029
     35 H12         4.0492   -3.6633    2.9421 H         1 <0>         0.0966
     36 H13        -1.1622   -6.4982    6.6454 H         1 <0>         0.0743
     37 H14        -1.0704   -5.6147    8.1878 H         1 <0>         0.0948
     38 H15        -1.2943   -4.7233    6.6635 H         1 <0>         0.0919
     39 H16         3.8263   -5.7848    9.6245 H         1 <0>         0.0768
     40 H17         3.1187   -7.3815    9.2810 H         1 <0>         0.0965
     41 H18         4.5753   -6.8473    8.4086 H         1 <0>         0.0953
@<TRIPOS>BOND
     1    1    2 1
     2    1   24 1
     3    1   25 1
     4    1   26 1
     5    2    7 ar
     6    2    3 ar
     7    3    4 ar
     8    3   27 1
     9    4    5 ar
    10    4   28 1
    11    5    6 ar
    12    5   29 1
    13    6    7 ar
    14    6    8 1
    15    7   30 1
    16    8    9 1
    17    8   31 1
    18    8   32 1
    19    9   10 1
    20   10   14 1
    21   10   11 2
    22   11   12 1
    23   12   21 1
    24   12   13 2
    25   13   14 1
    26   13   16 1
    27   14   15 1
    28   15   33 1
    29   15   34 1
    30   15   35 1
    31   16   17 2
    32   16   18 am
    33   18   19 am
    34   18   23 1
    35   19   20 2
    36   19   21 am
    37   21   22 1
    38   22   36 1
    39   22   37 1
    40   22   38 1
    41   23   39 1
    42   23   40 1
    43   23   41 1
@<TRIPOS>MOLECULE
CHEMBL583128
   51    54     0     0     0
SMALL
USER_CHARGES

@<TRIPOS>ATOM
      1 C1         -0.0167    1.3781    0.0096 C.ar      1 <0>        -0.1006
      2 C2          1.1709    2.0855    0.0021 C.ar      1 <0>        -0.1212
      3 C3          2.3773    1.4107   -0.0130 C.ar      1 <0>        -0.0927
      4 C4          2.3960    0.0285   -0.0201 C.ar      1 <0>        -0.1112
      5 C5          1.2084   -0.6789   -0.0117 C.ar      1 <0>        -0.0929
      6 C6          0.0021   -0.0041    0.0020 C.ar      1 <0>        -0.1214
      7 C7          3.7112   -0.7071   -0.0376 C.3       1 <0>         0.1005
      8 O1          4.1410   -0.9464    1.3041 O.3       1 <0>        -0.2904
      9 C8          5.3173   -1.6042    1.4664 C.ar      1 <0>         0.2095
     10 C9          6.0448   -2.0055    0.3474 C.ar      1 <0>        -0.2139
     11 C10         7.2287   -2.6681    0.4939 C.ar      1 <0>        -0.0262
     12 C11         7.7161   -2.9461    1.7761 C.ar      1 <0>        -0.2079
     13 C12         8.9837   -3.6549    1.9637 C.2       1 <0>        -0.0291
     14 C13         9.4033   -3.8944    3.2334 C.2       1 <0>        -0.1923
     15 C14         8.6211   -3.4620    4.3239 C.2       1 <0>         0.5050
     16 O2          9.0089   -3.6832    5.4570 O.2       1 <0>        -0.4299
     17 O3          7.4602   -2.8124    4.1451 O.3       1 <0>        -0.2586
     18 C15         6.9862   -2.5430    2.9098 C.ar      1 <0>         0.2035
     19 C16         5.7874   -1.8661    2.7427 C.ar      1 <0>        -0.1705
     20 C17         9.8003   -4.1067    0.7805 C.3       1 <0>         0.0352
     21 N1          9.3102   -5.4116    0.3168 N.4       1 <0>        -0.3814
     22 C18         9.5623   -6.4348    1.3538 C.3       1 <0>        -0.0150
     23 C19         9.9158   -7.7197    0.5639 C.3       1 <0>        -0.1411
     24 C20        10.7319   -7.1434   -0.6230 C.3       1 <0>        -0.1314
     25 C21        10.0254   -5.8022   -0.9119 C.3       1 <0>        -0.0059
     26 H1         10.7632   -5.0422   -1.1690 H         1 <0>         0.1718
     27 C22         9.0449   -5.9727   -2.0436 C.2       1 <0>         0.5149
     28 O4          7.8613   -5.7883   -1.8534 O.2       1 <0>        -0.5238
     29 N2          9.4832   -6.3300   -3.2670 N.am      1 <0>        -0.8211
     30 H2         -0.9591    1.9053    0.0259 H         1 <0>         0.1288
     31 H3          1.1563    3.1654    0.0076 H         1 <0>         0.1292
     32 H4          3.3051    1.9634   -0.0196 H         1 <0>         0.1248
     33 H5          1.2231   -1.7588   -0.0176 H         1 <0>         0.1245
     34 H6         -0.9258   -0.5567    0.0082 H         1 <0>         0.1290
     35 H7          3.5884   -1.6586   -0.5549 H         1 <0>         0.0800
     36 H8          4.4573   -0.1052   -0.5563 H         1 <0>         0.0802
     37 H9          5.6688   -1.7911   -0.6421 H         1 <0>         0.1484
     38 H10         7.7878   -2.9773   -0.3769 H         1 <0>         0.1334
     39 H11        10.3335   -4.4151    3.4070 H         1 <0>         0.1739
     40 H12         5.2201   -1.5480    3.6049 H         1 <0>         0.1616
     41 H13         9.7084   -3.3772   -0.0242 H         1 <0>         0.1479
     42 H14        10.8465   -4.1947    1.0734 H         1 <0>         0.1553
     43 H15        10.3983   -6.1362    1.9863 H         1 <0>         0.1400
     44 H16         8.6676   -6.5935    1.9558 H         1 <0>         0.1399
     45 H17        10.5253   -8.3931    1.1665 H         1 <0>         0.1282
     46 H18         9.0147   -8.2214    0.2111 H         1 <0>         0.1019
     47 H19        11.7694   -6.9778   -0.3329 H         1 <0>         0.1193
     48 H20        10.6732   -7.8041   -1.4879 H         1 <0>         0.1176
     49 H21        10.4298   -6.4774   -3.4190 H         1 <0>         0.4147
     50 H22         8.8521   -6.4397   -3.9954 H         1 <0>         0.4259
     51 H23         8.3201   -5.3565    0.1305 H         1 <0>         0.4336
@<TRIPOS>BOND
     1    1    6 ar
     2    1    2 ar
     3    1   30 1
     4    2    3 ar
     5    2   31 1
     6    3    4 ar
     7    3   32 1
     8    4    5 ar
     9    4    7 1
    10    5    6 ar
    11    5   33 1
    12    6   34 1
    13    7    8 1
    14    7   35 1
    15    7   36 1
    16    8    9 1
    17    9   19 ar
    18    9   10 ar
    19   10   11 ar
    20   10   37 1
    21   11   12 ar
    22   11   38 1
    23   12   18 ar
    24   12   13 1
    25   13   14 2
    26   13   20 1
    27   14   15 1
    28   14   39 1
    29   15   16 2
    30   15   17 1
    31   17   18 1
    32   18   19 ar
    33   19   40 1
    34   20   21 1
    35   20   41 1
    36   20   42 1
    37   21   25 1
    38   21   22 1
    39   21   51 1
    40   22   23 1
    41   22   43 1
    42   22   44 1
    43   23   24 1
    44   23   45 1
    45   23   46 1
    46   24   25 1
    47   24   47 1
    48   24   48 1
    49   25   26 1
    50   25   27 1
    51   27   28 2
    52   27   29 am
    53   29   49 1
    54   29   50 1
@<TRIPOS>MOLECULE
CHEMBL583128__1
   50    53     0     0     0
SMALL
USER_CHARGES

@<TRIPOS>ATOM
      1 C1         -0.0167    1.3781    0.0096 C.ar      1 <0>        -0.1069
      2 C2          1.1709    2.0855    0.0021 C.ar      1 <0>        -0.1233
      3 C3          2.3773    1.4107   -0.0130 C.ar      1 <0>        -0.0940
      4 C4          2.3960    0.0285   -0.0201 C.ar      1 <0>        -0.1016
      5 C5          1.2084   -0.6789   -0.0117 C.ar      1 <0>        -0.0935
      6 C6          0.0021   -0.0041    0.0020 C.ar      1 <0>        -0.1228
      7 C7          3.7112   -0.7071   -0.0376 C.3       1 <0>         0.1000
      8 O1          4.1410   -0.9464    1.3041 O.3       1 <0>        -0.2986
      9 C8          5.3173   -1.6042    1.4664 C.ar      1 <0>         0.1920
     10 C9          6.0448   -2.0055    0.3474 C.ar      1 <0>        -0.2280
     11 C10         7.2287   -2.6681    0.4939 C.ar      1 <0>         0.0087
     12 C11         7.7161   -2.9461    1.7761 C.ar      1 <0>        -0.1829
     13 C12         8.9837   -3.6549    1.9637 C.2       1 <0>         0.0564
     14 C13         9.4033   -3.8944    3.2334 C.2       1 <0>        -0.2584
     15 C14         8.6211   -3.4620    4.3239 C.2       1 <0>         0.5142
     16 O2          9.0089   -3.6832    5.4570 O.2       1 <0>        -0.4643
     17 O3          7.4602   -2.8124    4.1451 O.3       1 <0>        -0.2696
     18 C15         6.9862   -2.5430    2.9098 C.ar      1 <0>         0.1899
     19 C16         5.7874   -1.8661    2.7427 C.ar      1 <0>        -0.1792
     20 C17         9.8003   -4.1067    0.7805 C.3       1 <0>         0.0785
     21 N1          9.3102   -5.4116    0.3168 N.3       1 <0>        -0.4992
     22 C18         9.6180   -6.4727    1.2992 C.3       1 <0>         0.0408
     23 C19         9.8808   -7.7382    0.4453 C.3       1 <0>        -0.1297
     24 C20        10.6163   -7.1402   -0.7829 C.3       1 <0>        -0.1337
     25 C21         9.9201   -5.7765   -0.9750 C.3       1 <0>         0.0512
     26 H1         10.6530   -5.0236   -1.2649 H         1 <0>         0.0943
     27 C22         8.8521   -5.8905   -2.0321 C.2       1 <0>         0.5211
     28 O4          7.6911   -5.6887   -1.7454 O.2       1 <0>        -0.5127
     29 N2          9.1872   -6.2168   -3.2961 N.am      1 <0>        -0.8607
     30 H2         -0.9591    1.9053    0.0259 H         1 <0>         0.1254
     31 H3          1.1563    3.1654    0.0076 H         1 <0>         0.1264
     32 H4          3.3051    1.9634   -0.0196 H         1 <0>         0.1249
     33 H5          1.2231   -1.7588   -0.0176 H         1 <0>         0.1254
     34 H6         -0.9258   -0.5567    0.0082 H         1 <0>         0.1266
     35 H7          3.5884   -1.6586   -0.5549 H         1 <0>         0.0781
     36 H8          4.4573   -0.1052   -0.5563 H         1 <0>         0.0771
     37 H9          5.6688   -1.7911   -0.6421 H         1 <0>         0.1395
     38 H10         7.7878   -2.9773   -0.3769 H         1 <0>         0.1425
     39 H11        10.3335   -4.4151    3.4070 H         1 <0>         0.1598
     40 H12         5.2201   -1.5480    3.6049 H         1 <0>         0.1517
     41 H13         9.7084   -3.3772   -0.0242 H         1 <0>         0.0962
     42 H14        10.8465   -4.1947    1.0734 H         1 <0>         0.0650
     43 H15        10.5065   -6.2115    1.8740 H         1 <0>         0.0558
     44 H16         8.7687   -6.6328    1.9635 H         1 <0>         0.0875
     45 H17        10.5195   -8.4428    0.9779 H         1 <0>         0.0829
     46 H18         8.9443   -8.2100    0.1480 H         1 <0>         0.0791
     47 H19        11.6765   -7.0049   -0.5690 H         1 <0>         0.0830
     48 H20        10.4766   -7.7713   -1.6606 H         1 <0>         0.0827
     49 H21        10.1158   -6.3782   -3.5254 H         1 <0>         0.3994
     50 H22         8.4998   -6.2902   -3.9766 H         1 <0>         0.4032
@<TRIPOS>BOND
     1    1    6 ar
     2    1    2 ar
     3    1   30 1
     4    2    3 ar
     5    2   31 1
     6    3    4 ar
     7    3   32 1
     8    4    5 ar
     9    4    7 1
    10    5    6 ar
    11    5   33 1
    12    6   34 1
    13    7    8 1
    14    7   35 1
    15    7   36 1
    16    8    9 1
    17    9   19 ar
    18    9   10 ar
    19   10   11 ar
    20   10   37 1
    21   11   12 ar
    22   11   38 1
    23   12   18 ar
    24   12   13 1
    25   13   14 2
    26   13   20 1
    27   14   15 1
    28   14   39 1
    29   15   16 2
    30   15   17 1
    31   17   18 1
    32   18   19 ar
    33   19   40 1
    34   20   21 1
    35   20   41 1
    36   20   42 1
    37   21   25 1
    38   21   22 1
    39   22   23 1
    40   22   43 1
    41   22   44 1
    42   23   24 1
    43   23   45 1
    44   23   46 1
    45   24   25 1
    46   24   47 1
    47   24   48 1
    48   25   26 1
    49   25   27 1
    50   27   28 2
    51   27   29 am
    52   29   49 1
    53   29   50 1
@<TRIPOS>MOLECULE
CHEMBL464799
   33    35     0     0     0
SMALL
USER_CHARGES

@<TRIPOS>ATOM
      1 C1         -0.0167    1.3781    0.0096 C.ar      1 <0>        -0.1094
      2 C2          1.1709    2.0855    0.0021 C.ar      1 <0>        -0.1212
      3 C3          2.3773    1.4107   -0.0130 C.ar      1 <0>        -0.1003
      4 C4          2.3960    0.0285   -0.0201 C.ar      1 <0>        -0.1149
      5 C5          1.2084   -0.6789   -0.0117 C.ar      1 <0>        -0.1003
      6 C6          0.0021   -0.0041    0.0020 C.ar      1 <0>        -0.1212
      7 C7          3.7112   -0.7071   -0.0376 C.3       1 <0>         0.1620
      8 N1          4.1518   -0.9524    1.3379 N.am      1 <0>        -0.7253
      9 C8          5.3108   -1.6005    1.5688 C.2       1 <0>         0.5849
     10 O1          5.9909   -1.9817    0.6351 O.2       1 <0>        -0.5173
     11 C9          5.7531   -1.8467    2.9495 C.2       1 <0>         0.0094
     12 C10         6.8998   -2.4811    3.3079 C.2       1 <0>        -0.0988
     13 C11         6.9516   -2.5115    4.7225 C.ar      1 <0>        -0.1222
     14 C12         7.8771   -3.0247    5.6407 C.ar      1 <0>        -0.0584
     15 C13         7.6460   -2.8990    6.9795 C.ar      1 <0>        -0.1483
     16 C14         6.4993   -2.2662    7.4432 C.ar      1 <0>        -0.0835
     17 C15         5.5747   -1.7541    6.5610 C.ar      1 <0>        -0.1355
     18 C16         5.7886   -1.8691    5.1901 C.ar      1 <0>         0.1153
     19 N2          5.0717   -1.4646    4.0889 N.pl3     1 <0>        -0.5803
     20 H1          4.2255   -0.9909    4.1087 H         1 <0>         0.4162
     21 H2         -0.9591    1.9053    0.0259 H         1 <0>         0.1250
     22 H3          1.1563    3.1654    0.0076 H         1 <0>         0.1257
     23 H4          3.3051    1.9634   -0.0196 H         1 <0>         0.1248
     24 H5          1.2231   -1.7588   -0.0176 H         1 <0>         0.1248
     25 H6         -0.9258   -0.5567    0.0082 H         1 <0>         0.1257
     26 H7          3.5884   -1.6586   -0.5549 H         1 <0>         0.0817
     27 H8          4.4573   -0.1052   -0.5563 H         1 <0>         0.0818
     28 H9          3.6095   -0.6484    2.0824 H         1 <0>         0.3972
     29 H10         7.6392   -2.8890    2.6346 H         1 <0>         0.1574
     30 H11         8.7710   -3.5188    5.2896 H         1 <0>         0.1271
     31 H12         8.3609   -3.2955    7.6853 H         1 <0>         0.1261
     32 H13         6.3314   -2.1755    8.5062 H         1 <0>         0.1288
     33 H14         4.6861   -1.2646    6.9314 H         1 <0>         0.1230
@<TRIPOS>BOND
     1    1    6 ar
     2    1    2 ar
     3    1   21 1
     4    2    3 ar
     5    2   22 1
     6    3    4 ar
     7    3   23 1
     8    4    5 ar
     9    4    7 1
    10    5    6 ar
    11    5   24 1
    12    6   25 1
    13    7    8 1
    14    7   26 1
    15    7   27 1
    16    8    9 am
    17    8   28 1
    18    9   10 2
    19    9   11 1
    20   11   19 1
    21   11   12 2
    22   12   13 1
    23   12   29 1
    24   13   18 ar
    25   13   14 ar
    26   14   15 ar
    27   14   30 1
    28   15   16 ar
    29   15   31 1
    30   16   17 ar
    31   16   32 1
    32   17   18 ar
    33   17   33 1
    34   18   19 1
    35   19   20 1
@<TRIPOS>MOLECULE
CHEMBL464798
   36    38     0     0     0
SMALL
USER_CHARGES

@<TRIPOS>ATOM
      1 C1         -2.5742   -2.8673    2.3010 C.3       1 <0>         0.0694
      2 N1         -2.0672   -2.0036    1.2318 N.pl3     1 <0>        -0.4494
      3 C2         -2.1528   -2.2636   -0.1156 C.ar      1 <0>         0.1101
      4 C3         -2.6896   -3.3174   -0.8502 C.ar      1 <0>        -0.1299
      5 C4         -2.6238   -3.2966   -2.2252 C.ar      1 <0>        -0.0861
      6 C5         -2.0256   -2.2330   -2.8896 C.ar      1 <0>        -0.1471
      7 C6         -1.4922   -1.1891   -2.1915 C.ar      1 <0>        -0.0619
      8 C7         -1.5474   -1.1863   -0.7915 C.ar      1 <0>        -0.1199
      9 C8         -1.0992   -0.2777    0.1974 C.2       1 <0>        -0.1618
     10 C9         -1.4298   -0.7912    1.4114 C.2       1 <0>         0.0192
     11 C10        -1.1509   -0.1588    2.7090 C.2       1 <0>         0.5837
     12 O1         -1.6053   -0.6394    3.7301 O.2       1 <0>        -0.5192
     13 N2         -0.3918    0.9533    2.7673 N.am      1 <0>        -0.5504
     14 C11         0.0395    1.6115    1.5316 C.3       1 <0>         0.0533
     15 C12        -0.0160    1.4789    4.0073 C.ar      1 <0>         0.1467
     16 C13         0.3111    0.6268    5.0543 C.ar      1 <0>        -0.1160
     17 C14         0.6819    1.1492    6.2777 C.ar      1 <0>        -0.1002
     18 C15         0.7277    2.5191    6.4611 C.ar      1 <0>        -0.1306
     19 C16         0.4023    3.3703    5.4210 C.ar      1 <0>        -0.1006
     20 C17         0.0366    2.8544    4.1932 C.ar      1 <0>        -0.1399
     21 H1         -3.6444   -2.7020    2.4249 H         1 <0>         0.0735
     22 H2         -2.3953   -3.9106    2.0409 H         1 <0>         0.0792
     23 H3         -2.0600   -2.6319    3.2329 H         1 <0>         0.1056
     24 H4         -3.1560   -4.1490   -0.3429 H         1 <0>         0.1218
     25 H5         -3.0409   -4.1151   -2.7929 H         1 <0>         0.1285
     26 H6         -1.9822   -2.2327   -3.9688 H         1 <0>         0.1256
     27 H7         -1.0286   -0.3671   -2.7167 H         1 <0>         0.1261
     28 H8         -0.5895    0.6576    0.0189 H         1 <0>         0.1767
     29 H9         -0.8279    2.0297    1.0209 H         1 <0>         0.0777
     30 H10         0.7404    2.4111    1.7714 H         1 <0>         0.0869
     31 H11         0.5268    0.8834    0.8832 H         1 <0>         0.0931
     32 H12         0.2752   -0.4432    4.9118 H         1 <0>         0.1282
     33 H13         0.9360    0.4871    7.0923 H         1 <0>         0.1272
     34 H14         1.0180    2.9251    7.4189 H         1 <0>         0.1253
     35 H15         0.4384    4.4397    5.5677 H         1 <0>         0.1283
     36 H16        -0.2124    3.5198    3.3797 H         1 <0>         0.1269
@<TRIPOS>BOND
     1    1    2 1
     2    1   21 1
     3    1   22 1
     4    1   23 1
     5    2   10 1
     6    2    3 1
     7    3    8 ar
     8    3    4 ar
     9    4    5 ar
    10    4   24 1
    11    5    6 ar
    12    5   25 1
    13    6    7 ar
    14    6   26 1
    15    7    8 ar
    16    7   27 1
    17    8    9 1
    18    9   10 2
    19    9   28 1
    20   10   11 1
    21   11   12 2
    22   11   13 am
    23   13   14 1
    24   13   15 1
    25   14   29 1
    26   14   30 1
    27   14   31 1
    28   15   20 ar
    29   15   16 ar
    30   16   17 ar
    31   16   32 1
    32   17   18 ar
    33   17   33 1
    34   18   19 ar
    35   18   34 1
    36   19   20 ar
    37   19   35 1
    38   20   36 1
@<TRIPOS>MOLECULE
CHEMBL54762
   37    40     0     0     0
SMALL
USER_CHARGES

@<TRIPOS>ATOM
      1 C1         -0.0184    1.5028    0.0103 C.3       1 <0>        -0.0624
      2 C2          0.0021   -0.0041    0.0020 C.2       1 <0>         0.1789
      3 N1          0.0081   -0.7686   -1.0555 N.2       1 <0>        -0.2813
      4 N2          0.0264   -2.0031   -0.6932 N.2       1 <0>        -0.2556
      5 C3          0.0326   -2.0688    0.6181 C.2       1 <0>         0.1907
      6 O1          0.0232   -0.8028    1.0818 O.3       1 <0>        -0.2165
      7 C4          0.0519   -3.3003    1.4335 C.ar      1 <0>         0.0016
      8 C5          0.0503   -3.2174    2.8287 C.ar      1 <0>        -0.0434
      9 C6          0.0696   -4.3535    3.5828 C.ar      1 <0>        -0.0697
     10 C7          0.0909   -5.6148    2.9681 C.ar      1 <0>        -0.0519
     11 C8          0.0903   -5.6988    1.5743 C.ar      1 <0>        -0.6071
     12 C9          0.0661   -4.5517    0.8125 C.ar      1 <0>         0.0201
     13 S1          0.1115   -7.2704    0.7787 S.o2      1 <0>         2.5849
     14 O2          1.4641   -7.5308    0.4295 O.2       1 <0>        -0.9107
     15 O3         -0.9341   -7.2529   -0.1834 O.2       1 <0>        -0.9122
     16 C10        -0.3365   -8.4703    1.9884 C.ar      1 <0>        -0.6489
     17 C11        -0.7243   -9.7327    1.5848 C.ar      1 <0>         0.0181
     18 C12        -1.0802  -10.6864    2.5197 C.ar      1 <0>        -0.1915
     19 C13        -1.0498  -10.3784    3.8736 C.ar      1 <0>         0.1759
     20 C14        -0.6629   -9.1176    4.2884 C.ar      1 <0>        -0.1033
     21 C15        -0.2996   -8.1485    3.3445 C.ar      1 <0>        -0.0370
     22 C16         0.1159   -6.8177    3.8108 C.2       1 <0>         0.4166
     23 O4          0.5017   -6.7064    4.9583 O.2       1 <0>        -0.3979
     24 O5         -1.4011  -11.3171    4.7915 O.3       1 <0>        -0.3045
     25 C17        -1.7908  -12.5982    4.2928 C.3       1 <0>         0.0192
     26 H1          1.0042    1.8801    0.0026 H         1 <0>         0.1047
     27 H2         -0.5455    1.8639   -0.8728 H         1 <0>         0.1122
     28 H3         -0.5286    1.8543    0.9071 H         1 <0>         0.0970
     29 H4          0.0341   -2.2511    3.3108 H         1 <0>         0.1537
     30 H5          0.0688   -4.2820    4.6605 H         1 <0>         0.1591
     31 H6          0.0627   -4.6194   -0.2653 H         1 <0>         0.1633
     32 H7         -0.7500   -9.9760    0.5329 H         1 <0>         0.1515
     33 H8         -1.3826  -11.6717    2.1971 H         1 <0>         0.1515
     34 H9         -0.6409   -8.8795    5.3416 H         1 <0>         0.1564
     35 H10        -2.6578  -12.4863    3.6417 H         1 <0>         0.0641
     36 H11        -0.9666  -13.0345    3.7284 H         1 <0>         0.0642
     37 H12        -2.0452  -13.2511    5.1277 H         1 <0>         0.1101
@<TRIPOS>BOND
     1    1    2 1
     2    1   26 1
     3    1   27 1
     4    1   28 1
     5    2    6 1
     6    2    3 2
     7    3    4 1
     8    4    5 2
     9    5    6 1
    10    5    7 1
    11    7   12 ar
    12    7    8 ar
    13    8    9 ar
    14    8   29 1
    15    9   10 ar
    16    9   30 1
    17   10   22 1
    18   10   11 ar
    19   11   12 ar
    20   11   13 1
    21   12   31 1
    22   13   14 2
    23   13   15 2
    24   13   16 1
    25   16   21 ar
    26   16   17 ar
    27   17   18 ar
    28   17   32 1
    29   18   19 ar
    30   18   33 1
    31   19   20 ar
    32   19   24 1
    33   20   21 ar
    34   20   34 1
    35   21   22 1
    36   22   23 2
    37   24   25 1
    38   25   35 1
    39   25   36 1
    40   25   37 1
@<TRIPOS>MOLECULE
CHEMBL470226
   37    39     0     0     0
SMALL
USER_CHARGES

@<TRIPOS>ATOM
      1 C1         -1.0105    1.4535   -0.4516 C.3       1 <0>        -0.6510
      2 S1          0.0038    0.0179   -0.0034 S.o2      1 <0>         2.5032
      3 O1          1.0326    0.4072    0.8962 O.2       1 <0>        -0.9375
      4 O2         -0.8275   -1.0977    0.2857 O.2       1 <0>        -0.9381
      5 C2          0.8466   -0.4219   -1.4870 C.ar      1 <0>        -0.6783
      6 C3          0.2712   -1.3202   -2.3669 C.ar      1 <0>        -0.0011
      7 C4          0.9291   -1.6670   -3.5306 C.ar      1 <0>        -0.1645
      8 C5          2.1700   -1.1126   -3.8167 C.ar      1 <0>         0.2048
      9 C6          2.7451   -0.2106   -2.9308 C.ar      1 <0>        -0.1448
     10 C7          2.0794    0.1363   -1.7716 C.ar      1 <0>        -0.0020
     11 N1          2.8391   -1.4620   -4.9940 N.am      1 <0>        -0.6682
     12 C8          4.1853   -1.5239   -5.0110 C.2       1 <0>         0.5852
     13 O3          4.8143   -1.3699   -3.9814 O.2       1 <0>        -0.5079
     14 C9          4.8946   -1.7779   -6.2760 C.2       1 <0>        -0.2896
     15 C10         6.2802   -1.8528   -6.3240 C.2       1 <0>         0.0963
     16 C11         6.8937   -2.0684   -7.5849 C.ar      1 <0>        -0.1743
     17 C12         8.2646   -2.3515   -7.6704 C.ar      1 <0>        -0.0373
     18 C13         8.8317   -2.5977   -8.8877 C.ar      1 <0>        -0.1418
     19 C14         8.0647   -2.5624  -10.0441 C.ar      1 <0>        -0.0447
     20 C15         6.7185   -2.2669   -9.9856 C.ar      1 <0>        -0.1364
     21 C16         6.1213   -2.0061   -8.7597 C.ar      1 <0>         0.1534
     22 O4          4.8100   -1.6725   -8.6935 O.3       1 <0>        -0.2668
     23 C17         4.1615   -1.9688   -7.5408 C.2       1 <0>         0.5293
     24 O5          3.0142   -2.3740   -7.5476 O.2       1 <0>        -0.4399
     25 H1         -0.3653    2.2589   -0.8027 H         1 <0>         0.1313
     26 H2         -1.7062    1.1741   -1.2428 H         1 <0>         0.1313
     27 H3         -1.5694    1.7902    0.4215 H         1 <0>         0.1327
     28 H4         -0.6936   -1.7512   -2.1437 H         1 <0>         0.1480
     29 H5          0.4793   -2.3689   -4.2173 H         1 <0>         0.1388
     30 H6          3.7099    0.2223   -3.1504 H         1 <0>         0.1449
     31 H7          2.5240    0.8409   -1.0844 H         1 <0>         0.1470
     32 H8          2.3343   -1.6598   -5.7983 H         1 <0>         0.4240
     33 H9          6.8737   -1.7497   -5.4276 H         1 <0>         0.1698
     34 H10         8.8699   -2.3743   -6.7762 H         1 <0>         0.1465
     35 H11         9.8864   -2.8216   -8.9514 H         1 <0>         0.1418
     36 H12         8.5263   -2.7678  -10.9987 H         1 <0>         0.1462
     37 H13         6.1307   -2.2382  -10.8912 H         1 <0>         0.1495
@<TRIPOS>BOND
     1    1    2 1
     2    1   25 1
     3    1   26 1
     4    1   27 1
     5    2    3 2
     6    2    4 2
     7    2    5 1
     8    5   10 ar
     9    5    6 ar
    10    6    7 ar
    11    6   28 1
    12    7    8 ar
    13    7   29 1
    14    8    9 ar
    15    8   11 1
    16    9   10 ar
    17    9   30 1
    18   10   31 1
    19   11   12 am
    20   11   32 1
    21   12   13 2
    22   12   14 1
    23   14   23 1
    24   14   15 2
    25   15   16 1
    26   15   33 1
    27   16   21 ar
    28   16   17 ar
    29   17   18 ar
    30   17   34 1
    31   18   19 ar
    32   18   35 1
    33   19   20 ar
    34   19   36 1
    35   20   21 ar
    36   20   37 1
    37   21   22 1
    38   22   23 1
    39   23   24 2
@<TRIPOS>MOLECULE
CHEMBL18101
   42    43     0     0     0
SMALL
USER_CHARGES

@<TRIPOS>ATOM
      1 C1         -0.0173    1.4248    0.0099 C.3       1 <0>         0.0306
      2 O1          0.0021   -0.0041    0.0020 O.3       1 <0>        -0.3830
      3 C2          0.6518   -0.5703   -1.1379 C.3       1 <0>         0.0637
      4 C3          0.6131   -2.0967   -1.0411 C.3       1 <0>         0.0712
      5 H1          1.0316   -2.4355   -0.0933 H         1 <0>         0.1176
      6 C4          1.3533   -2.7449   -2.2350 C.3       1 <0>         0.0666
      7 N1          0.5114   -3.9232   -2.5219 N.am      1 <0>        -0.5718
      8 C5         -0.6603   -3.7562   -1.8801 C.2       1 <0>         0.6430
      9 O2         -1.5594   -4.5734   -1.8986 O.2       1 <0>        -0.4941
     10 O3         -0.7296   -2.5895   -1.2159 O.3       1 <0>        -0.3067
     11 C6          0.8679   -5.0192   -3.3195 C.ar      1 <0>         0.1458
     12 C7          2.1188   -5.0633   -3.9202 C.ar      1 <0>        -0.1140
     13 C8          2.4694   -6.1434   -4.7059 C.ar      1 <0>        -0.1200
     14 C9          1.5720   -7.1840   -4.8954 C.ar      1 <0>         0.1098
     15 C10         0.3220   -7.1406   -4.2955 C.ar      1 <0>        -0.1743
     16 C11        -0.0276   -6.0639   -3.5045 C.ar      1 <0>        -0.1105
     17 O4          1.9175   -8.2469   -5.6699 O.3       1 <0>        -0.3135
     18 C12         0.9446   -9.2825   -5.8218 C.3       1 <0>         0.0661
     19 C13         1.5092  -10.3849   -6.7200 C.3       1 <0>        -0.1587
     20 C14         0.4675  -11.4937   -6.8826 C.3       1 <0>         0.0772
     21 H2         -0.4639  -11.0656   -7.2531 H         1 <0>         0.1474
     22 C15         0.9821  -12.5348   -7.8787 C.3       1 <0>         0.4224
     23 F1          2.1776  -13.0842   -7.4032 F         1 <0>        -0.1814
     24 F2          0.0297  -13.5486   -8.0274 F         1 <0>        -0.1728
     25 F3          1.2096  -11.9235   -9.1163 F         1 <0>        -0.1768
     26 O5          0.2352  -12.1181   -5.6184 O.3       1 <0>        -0.5285
     27 H3          1.0053    1.8021    0.0021 H         1 <0>         0.0454
     28 H4         -0.5445    1.7859   -0.8732 H         1 <0>         0.0455
     29 H5         -0.5275    1.7763    0.9067 H         1 <0>         0.0920
     30 H6          0.1385   -0.2506   -2.0447 H         1 <0>         0.0676
     31 H7          1.6883   -0.2344   -1.1694 H         1 <0>         0.0812
     32 H8          1.3784   -2.0686   -3.0895 H         1 <0>         0.1014
     33 H9          2.3604   -3.0481   -1.9489 H         1 <0>         0.1131
     34 H10         2.8173   -4.2528   -3.7733 H         1 <0>         0.1343
     35 H11         3.4425   -6.1778   -5.1732 H         1 <0>         0.1389
     36 H12        -0.3764   -7.9509   -4.4437 H         1 <0>         0.1358
     37 H13        -0.9990   -6.0325   -3.0336 H         1 <0>         0.1580
     38 H14         0.7018   -9.6991   -4.8442 H         1 <0>         0.0758
     39 H15         0.0431   -8.8704   -6.2752 H         1 <0>         0.0690
     40 H16         1.7520   -9.9683   -7.6975 H         1 <0>         0.1012
     41 H17         2.4107  -10.7969   -6.2665 H         1 <0>         0.0949
     42 H18         1.0227  -12.5214   -5.2283 H         1 <0>         0.3905
@<TRIPOS>BOND
     1    1    2 1
     2    1   27 1
     3    1   28 1
     4    1   29 1
     5    2    3 1
     6    3    4 1
     7    3   30 1
     8    3   31 1
     9    4    5 1
    10    4   10 1
    11    4    6 1
    12    6    7 1
    13    6   32 1
    14    6   33 1
    15    7    8 am
    16    7   11 1
    17    8    9 2
    18    8   10 1
    19   11   16 ar
    20   11   12 ar
    21   12   13 ar
    22   12   34 1
    23   13   14 ar
    24   13   35 1
    25   14   15 ar
    26   14   17 1
    27   15   16 ar
    28   15   36 1
    29   16   37 1
    30   17   18 1
    31   18   19 1
    32   18   38 1
    33   18   39 1
    34   19   20 1
    35   19   40 1
    36   19   41 1
    37   20   21 1
    38   20   22 1
    39   20   26 1
    40   22   23 1
    41   22   24 1
    42   22   25 1
    43   26   42 1
@<TRIPOS>MOLECULE
CHEMBL596453
   32    34     0     0     0
SMALL
USER_CHARGES

@<TRIPOS>ATOM
      1 C1         -0.0162    1.3409    0.0094 C.2       1 <0>        -0.2066
      2 C2          1.3313    1.7689   -0.0012 C.2       1 <0>        -0.1767
      3 C3          2.0923    0.6599   -0.0144 C.2       1 <0>        -0.0068
      4 O1          1.2819   -0.4111   -0.0124 O.3       1 <0>        -0.1710
      5 C4          0.0021   -0.0041    0.0020 C.2       1 <0>        -0.0397
      6 C5          3.5989    0.6249   -0.0294 C.3       1 <0>         0.2973
      7 C6          4.1041    0.2893   -1.4098 C.2       1 <0>        -0.2509
      8 C7          4.7880   -0.8393   -1.3316 C.2       1 <0>         0.1522
      9 C8          5.4526   -1.4985   -2.5230 C.3       1 <0>        -0.0596
     10 C9          4.8529   -0.9138   -3.8054 C.3       1 <0>        -0.1160
     11 C10         4.8844    0.6158   -3.7297 C.3       1 <0>        -0.1209
     12 C11         3.8810    1.0860   -2.6702 C.3       1 <0>        -0.0350
     13 N1          4.8092   -1.3221   -0.0349 N.pl3     1 <0>        -0.5667
     14 N2          4.0966   -0.4708    0.8203 N.pl3     1 <0>        -0.3728
     15 C12         3.9065   -0.6228    2.1459 C.2       1 <0>         0.5825
     16 S1          2.9992    0.5371    3.0191 S.2       1 <0>        -0.5893
     17 N3          4.4307   -1.6878    2.7841 N.pl3     1 <0>        -0.8065
     18 H1         -0.8920    1.9726    0.0252 H         1 <0>         0.1476
     19 H2          1.6822    2.7903    0.0004 H         1 <0>         0.1474
     20 H3         -0.8653   -0.6475    0.0072 H         1 <0>         0.1986
     21 H4          4.0043    1.5800    0.3046 H         1 <0>         0.1282
     22 H5          6.5246   -1.3026   -2.4983 H         1 <0>         0.0895
     23 H6          5.2742   -2.5733   -2.4929 H         1 <0>         0.0823
     24 H7          5.4354   -1.2474   -4.6642 H         1 <0>         0.0769
     25 H8          3.8220   -1.2515   -3.9115 H         1 <0>         0.0704
     26 H9          5.8860    0.9466   -3.4549 H         1 <0>         0.0679
     27 H10         4.6141    1.0344   -4.6991 H         1 <0>         0.0737
     28 H11         2.8655    0.9231   -3.0312 H         1 <0>         0.0732
     29 H12         4.0338    2.1456   -2.4652 H         1 <0>         0.0759
     30 H13         5.2555   -2.1371    0.2435 H         1 <0>         0.4275
     31 H14         4.9447   -2.3450    2.2894 H         1 <0>         0.3912
     32 H15         4.2938   -1.7972    3.7382 H         1 <0>         0.4365
@<TRIPOS>BOND
     1    1    5 2
     2    1    2 1
     3    1   18 1
     4    2    3 2
     5    2   19 1
     6    3    4 1
     7    3    6 1
     8    4    5 1
     9    5   20 1
    10    6   14 1
    11    6    7 1
    12    6   21 1
    13    7   12 1
    14    7    8 2
    15    8    9 1
    16    8   13 1
    17    9   10 1
    18    9   22 1
    19    9   23 1
    20   10   11 1
    21   10   24 1
    22   10   25 1
    23   11   12 1
    24   11   26 1
    25   11   27 1
    26   12   28 1
    27   12   29 1
    28   13   14 1
    29   13   30 1
    30   14   15 1
    31   15   16 2
    32   15   17 1
    33   17   31 1
    34   17   32 1
@<TRIPOS>MOLECULE
CHEMBL596453__1
   32    34     0     0     0
SMALL
USER_CHARGES

@<TRIPOS>ATOM
      1 C1         -0.0162    1.3409    0.0094 C.2       1 <0>        -0.2066
      2 C2          1.3313    1.7689   -0.0012 C.2       1 <0>        -0.1771
      3 C3          2.0923    0.6599   -0.0144 C.2       1 <0>        -0.0067
      4 O1          1.2819   -0.4111   -0.0124 O.3       1 <0>        -0.1709
      5 C4          0.0021   -0.0041    0.0020 C.2       1 <0>        -0.0395
      6 C5          3.5989    0.6249   -0.0294 C.3       1 <0>         0.2972
      7 C6          4.1311    0.2751    1.3372 C.2       1 <0>        -0.2510
      8 C7          4.8134   -0.8524    1.2339 C.2       1 <0>         0.1523
      9 C8          5.5025   -1.5230    2.4048 C.3       1 <0>        -0.0599
     10 C9          5.6408   -0.5057    3.5414 C.3       1 <0>        -0.1153
     11 C10         4.2835    0.1560    3.7990 C.3       1 <0>        -0.1210
     12 C11         3.9320    1.0581    2.6102 C.3       1 <0>        -0.0362
     13 N1          4.8089   -1.3219   -0.0678 N.pl3     1 <0>        -0.5666
     14 N2          4.0797   -0.4619   -0.9000 N.pl3     1 <0>        -0.3728
     15 C12         3.8634   -0.6002   -2.2231 C.2       1 <0>         0.5824
     16 S1          2.9392    0.5685   -3.0662 S.2       1 <0>        -0.5892
     17 N3          4.3748   -1.6586   -2.8825 N.pl3     1 <0>        -0.8065
     18 H1         -0.8920    1.9726    0.0252 H         1 <0>         0.1476
     19 H2          1.6822    2.7903    0.0004 H         1 <0>         0.1476
     20 H3         -0.8653   -0.6475    0.0072 H         1 <0>         0.1986
     21 H4          3.9977    1.5834   -0.3615 H         1 <0>         0.1282
     22 H5          4.9066   -2.3706    2.7432 H         1 <0>         0.0884
     23 H6          6.4909   -1.8667    2.0995 H         1 <0>         0.0829
     24 H7          5.9749   -1.0141    4.4459 H         1 <0>         0.0767
     25 H8          6.3691    0.2554    3.2616 H         1 <0>         0.0718
     26 H9          3.5188   -0.6125    3.9115 H         1 <0>         0.0663
     27 H10         4.3366    0.7550    4.7081 H         1 <0>         0.0738
     28 H11         4.5847    1.9312    2.6087 H         1 <0>         0.0750
     29 H12         2.8920    1.3755    2.6857 H         1 <0>         0.0756
     30 H13         5.2495   -2.1340   -0.3633 H         1 <0>         0.4275
     31 H14         4.8985   -2.3208   -2.4048 H         1 <0>         0.3912
     32 H15         4.2192   -1.7581   -3.8347 H         1 <0>         0.4364
@<TRIPOS>BOND
     1    1    5 2
     2    1    2 1
     3    1   18 1
     4    2    3 2
     5    2   19 1
     6    3    4 1
     7    3    6 1
     8    4    5 1
     9    5   20 1
    10    6   14 1
    11    6    7 1
    12    6   21 1
    13    7   12 1
    14    7    8 2
    15    8    9 1
    16    8   13 1
    17    9   10 1
    18    9   22 1
    19    9   23 1
    20   10   11 1
    21   10   24 1
    22   10   25 1
    23   11   12 1
    24   11   26 1
    25   11   27 1
    26   12   28 1
    27   12   29 1
    28   13   14 1
    29   13   30 1
    30   14   15 1
    31   15   16 2
    32   15   17 1
    33   17   31 1
    34   17   32 1
@<TRIPOS>MOLECULE
CHEMBL350093
   42    44     0     0     0
SMALL
USER_CHARGES

@<TRIPOS>ATOM
      1 C1         -0.0167    1.3781    0.0096 C.ar      1 <0>        -0.1078
      2 C2          1.1709    2.0855    0.0021 C.ar      1 <0>        -0.1230
      3 C3          2.3773    1.4107   -0.0130 C.ar      1 <0>        -0.0946
      4 C4          2.3960    0.0285   -0.0201 C.ar      1 <0>        -0.1006
      5 C5          1.2084   -0.6789   -0.0117 C.ar      1 <0>        -0.0946
      6 C6          0.0021   -0.0041    0.0020 C.ar      1 <0>        -0.1230
      7 C7          3.7112   -0.7071   -0.0376 C.3       1 <0>         0.1000
      8 O1          4.1410   -0.9464    1.3041 O.3       1 <0>        -0.3043
      9 C8          5.3184   -1.6048    1.4665 C.ar      1 <0>         0.1558
     10 C9          6.0463   -2.0064    0.3542 C.ar      1 <0>        -0.2143
     11 C10         7.2412   -2.6746    0.5145 C.ar      1 <0>        -0.0346
     12 C11         7.7195   -2.9476    1.7977 C.ar      1 <0>        -0.0825
     13 C12         6.9844   -2.5421    2.9135 C.ar      1 <0>        -0.0260
     14 C13         5.7932   -1.8693    2.7444 C.ar      1 <0>        -0.1557
     15 C14         8.9994   -3.6640    1.9743 C.2       1 <0>         0.3150
     16 N1          9.4142   -3.9072    3.1762 N.2       1 <0>        -0.2639
     17 N2         10.6312   -4.5687    3.4094 N.pl3     1 <0>        -0.5361
     18 C15        11.2544   -5.2808    2.2772 C.3       1 <0>         0.0690
     19 C16        10.9716   -4.4406    1.0430 C.2       1 <0>         0.4748
     20 O2         11.8454   -4.1460    0.2564 O.2       1 <0>        -0.4190
     21 O3          9.6898   -4.0451    0.8700 O.3       1 <0>        -0.3234
     22 C17        11.2603   -4.5527    4.7324 C.3       1 <0>         0.1727
     23 C18        12.1990   -3.3489    4.8361 C.3       1 <0>        -0.0529
     24 C19        12.8311   -3.3328    6.1654 C.1       1 <0>         0.2047
     25 N3         13.3189   -3.3203    7.1913 N.1       1 <0>        -0.4236
     26 H1         -0.9591    1.9053    0.0259 H         1 <0>         0.1252
     27 H2          1.1563    3.1654    0.0076 H         1 <0>         0.1262
     28 H3          3.3051    1.9634   -0.0196 H         1 <0>         0.1248
     29 H4          1.2231   -1.7588   -0.0176 H         1 <0>         0.1248
     30 H5         -0.9258   -0.5567    0.0082 H         1 <0>         0.1262
     31 H6          3.5884   -1.6586   -0.5549 H         1 <0>         0.0751
     32 H7          4.4573   -0.1052   -0.5563 H         1 <0>         0.0751
     33 H8          5.6755   -1.7951   -0.6379 H         1 <0>         0.1361
     34 H9          7.8065   -2.9869   -0.3511 H         1 <0>         0.1373
     35 H10         7.3508   -2.7513    3.9077 H         1 <0>         0.1469
     36 H11         5.2264   -1.5511    3.6069 H         1 <0>         0.1406
     37 H12        12.3296   -5.3661    2.4343 H         1 <0>         0.1270
     38 H13        10.8107   -6.2703    2.1669 H         1 <0>         0.1068
     39 H14        10.4900   -4.4800    5.5001 H         1 <0>         0.0989
     40 H15        11.8299   -5.4710    4.8750 H         1 <0>         0.0949
     41 H16        12.9693   -3.4216    4.0684 H         1 <0>         0.1086
     42 H17        11.6293   -2.4306    4.6935 H         1 <0>         0.1134
@<TRIPOS>BOND
     1    1    6 ar
     2    1    2 ar
     3    1   26 1
     4    2    3 ar
     5    2   27 1
     6    3    4 ar
     7    3   28 1
     8    4    5 ar
     9    4    7 1
    10    5    6 ar
    11    5   29 1
    12    6   30 1
    13    7    8 1
    14    7   31 1
    15    7   32 1
    16    8    9 1
    17    9   14 ar
    18    9   10 ar
    19   10   11 ar
    20   10   33 1
    21   11   12 ar
    22   11   34 1
    23   12   13 ar
    24   12   15 1
    25   13   14 ar
    26   13   35 1
    27   14   36 1
    28   15   21 1
    29   15   16 2
    30   16   17 1
    31   17   18 1
    32   17   22 1
    33   18   19 1
    34   18   37 1
    35   18   38 1
    36   19   20 2
    37   19   21 1
    38   22   23 1
    39   22   39 1
    40   22   40 1
    41   23   24 1
    42   23   41 1
    43   23   42 1
    44   24   25 3
@<TRIPOS>MOLECULE
CHEMBL595
   45    47     0     0     0
SMALL
USER_CHARGES

@<TRIPOS>ATOM
      1 C1         -0.0187    1.5258    0.0104 C.3       1 <0>        -0.1485
      2 C2          0.0021   -0.0041    0.0020 C.3       1 <0>        -0.0825
      3 C3         -1.4117   -0.5257    0.0127 C.ar      1 <0>        -0.1336
      4 C4         -2.0610   -0.7697    1.2135 C.ar      1 <0>        -0.0712
      5 C5         -3.3611   -1.2493    1.1750 C.ar      1 <0>        -0.1598
      6 C6         -3.9628   -1.4667   -0.0503 C.ar      1 <0>         0.1217
      7 N1         -3.3146   -1.2238   -1.1725 N.ar      1 <0>        -0.4787
      8 C7         -2.0795   -0.7615   -1.1739 C.ar      1 <0>         0.1058
      9 C8         -5.3758   -1.9878   -0.1041 C.3       1 <0>        -0.0660
     10 C9         -6.2363   -1.0427   -0.9450 C.3       1 <0>         0.0690
     11 O1         -7.5762   -1.5368   -0.9961 O.3       1 <0>        -0.3149
     12 C10        -8.4756   -0.8087   -1.7087 C.ar      1 <0>         0.1401
     13 C11        -8.0754    0.3543   -2.3505 C.ar      1 <0>        -0.2078
     14 C12        -8.9915    1.0924   -3.0747 C.ar      1 <0>        -0.0664
     15 C13       -10.3063    0.6731   -3.1598 C.ar      1 <0>        -0.1385
     16 C14       -10.7077   -0.4854   -2.5207 C.ar      1 <0>        -0.0606
     17 C15        -9.7941   -1.2303   -1.8004 C.ar      1 <0>        -0.1500
     18 C16       -11.3036    1.4805   -3.9501 C.3       1 <0>        -0.0488
     19 C17       -11.3215    0.9914   -5.3997 C.3       1 <0>        -0.0721
     20 C18       -12.3714    1.7279   -6.2199 C.2       1 <0>         0.5304
     21 N2        -13.3364    0.9717   -6.7155 N.am      1 <0>        -0.6902
     22 C19       -13.4094   -0.3585   -6.5235 C.2       1 <0>         0.5597
     23 O2        -14.2527   -1.1305   -6.9369 O.2       1 <0>        -0.4174
     24 S1        -11.9773   -0.7250   -5.5197 S.3       1 <0>        -0.1388
     25 O3        -12.3261    2.9251   -6.4056 O.2       1 <0>        -0.4586
     26 H1          1.0039    1.9031    0.0027 H         1 <0>         0.0622
     27 H2         -0.5459    1.8868   -0.8726 H         1 <0>         0.0567
     28 H3         -0.5289    1.8773    0.9072 H         1 <0>         0.0554
     29 H4          0.5123   -0.3556   -0.8948 H         1 <0>         0.0771
     30 H5          0.5293   -0.3651    0.8851 H         1 <0>         0.0752
     31 H6         -1.5654   -0.5908    2.1563 H         1 <0>         0.1359
     32 H7         -3.8970   -1.4508    2.0908 H         1 <0>         0.1372
     33 H8         -1.5825   -0.5693   -2.1133 H         1 <0>         0.1563
     34 H9         -5.3801   -2.9805   -0.5544 H         1 <0>         0.0953
     35 H10        -5.7806   -2.0455    0.9063 H         1 <0>         0.0913
     36 H11        -6.2321   -0.0500   -0.4948 H         1 <0>         0.0609
     37 H12        -5.8315   -0.9850   -1.9555 H         1 <0>         0.0759
     38 H13        -7.0487    0.6826   -2.2838 H         1 <0>         0.1292
     39 H14        -8.6804    1.9979   -3.5745 H         1 <0>         0.1274
     40 H15       -11.7353   -0.8106   -2.5884 H         1 <0>         0.1349
     41 H16       -10.1071   -2.1375   -1.3051 H         1 <0>         0.1335
     42 H17       -12.2953    1.3606   -3.5139 H         1 <0>         0.0897
     43 H18       -11.0205    2.5328   -3.9252 H         1 <0>         0.1048
     44 H19       -10.3340    1.0715   -5.8543 H         1 <0>         0.1609
     45 H20       -14.0283    1.3982   -7.2449 H         1 <0>         0.4179
@<TRIPOS>BOND
     1    1    2 1
     2    1   26 1
     3    1   27 1
     4    1   28 1
     5    2    3 1
     6    2   29 1
     7    2   30 1
     8    3    8 ar
     9    3    4 ar
    10    4    5 ar
    11    4   31 1
    12    5    6 ar
    13    5   32 1
    14    6    7 ar
    15    6    9 1
    16    7    8 ar
    17    8   33 1
    18    9   10 1
    19    9   34 1
    20    9   35 1
    21   10   11 1
    22   10   36 1
    23   10   37 1
    24   11   12 1
    25   12   17 ar
    26   12   13 ar
    27   13   14 ar
    28   13   38 1
    29   14   15 ar
    30   14   39 1
    31   15   16 ar
    32   15   18 1
    33   16   17 ar
    34   16   40 1
    35   17   41 1
    36   18   19 1
    37   18   42 1
    38   18   43 1
    39   19   24 1
    40   19   20 1
    41   19   44 1
    42   20   21 am
    43   20   25 2
    44   21   22 am
    45   21   45 1
    46   22   23 2
    47   22   24 1
@<TRIPOS>MOLECULE
CHEMBL595__1
   45    47     0     0     0
SMALL
USER_CHARGES

@<TRIPOS>ATOM
      1 C1         -0.0187    1.5258    0.0104 C.3       1 <0>        -0.1485
      2 C2          0.0021   -0.0041    0.0020 C.3       1 <0>        -0.0824
      3 C3         -1.4117   -0.5257    0.0127 C.ar      1 <0>        -0.1336
      4 C4         -2.0610   -0.7697    1.2135 C.ar      1 <0>        -0.0713
      5 C5         -3.3611   -1.2493    1.1750 C.ar      1 <0>        -0.1599
      6 C6         -3.9628   -1.4667   -0.0503 C.ar      1 <0>         0.1215
      7 N1         -3.3146   -1.2238   -1.1725 N.ar      1 <0>        -0.4783
      8 C7         -2.0795   -0.7615   -1.1739 C.ar      1 <0>         0.1061
      9 C8         -5.3758   -1.9878   -0.1041 C.3       1 <0>        -0.0657
     10 C9         -6.2363   -1.0427   -0.9450 C.3       1 <0>         0.0687
     11 O1         -7.5762   -1.5368   -0.9961 O.3       1 <0>        -0.3152
     12 C10        -8.4756   -0.8087   -1.7087 C.ar      1 <0>         0.1401
     13 C11        -8.0754    0.3543   -2.3505 C.ar      1 <0>        -0.2060
     14 C12        -8.9915    1.0924   -3.0747 C.ar      1 <0>        -0.0589
     15 C13       -10.3063    0.6731   -3.1598 C.ar      1 <0>        -0.1388
     16 C14       -10.7077   -0.4854   -2.5207 C.ar      1 <0>        -0.0676
     17 C15        -9.7941   -1.2303   -1.8004 C.ar      1 <0>        -0.1520
     18 C16       -11.3036    1.4805   -3.9501 C.3       1 <0>        -0.0488
     19 C17       -11.3215    0.9914   -5.3997 C.3       1 <0>        -0.0715
     20 C18       -12.2605    1.8299   -6.2557 C.2       1 <0>         0.5303
     21 N2        -11.6862    2.4891   -7.2478 N.am      1 <0>        -0.6902
     22 C19       -10.3660    2.4400   -7.5053 C.2       1 <0>         0.5599
     23 O2         -9.7527    3.0078   -8.3881 O.2       1 <0>        -0.4177
     24 S1         -9.7251    1.3459   -6.2463 S.3       1 <0>        -0.1407
     25 O3        -13.4525    1.8889   -6.0427 O.2       1 <0>        -0.4582
     26 H1          1.0039    1.9031    0.0027 H         1 <0>         0.0621
     27 H2         -0.5459    1.8868   -0.8726 H         1 <0>         0.0568
     28 H3         -0.5289    1.8773    0.9072 H         1 <0>         0.0553
     29 H4          0.5123   -0.3556   -0.8948 H         1 <0>         0.0771
     30 H5          0.5293   -0.3651    0.8851 H         1 <0>         0.0751
     31 H6         -1.5654   -0.5908    2.1563 H         1 <0>         0.1358
     32 H7         -3.8970   -1.4508    2.0908 H         1 <0>         0.1371
     33 H8         -1.5825   -0.5693   -2.1133 H         1 <0>         0.1565
     34 H9         -5.3801   -2.9805   -0.5544 H         1 <0>         0.0951
     35 H10        -5.7806   -2.0455    0.9063 H         1 <0>         0.0911
     36 H11        -6.2321   -0.0500   -0.4948 H         1 <0>         0.0611
     37 H12        -5.8315   -0.9850   -1.9555 H         1 <0>         0.0764
     38 H13        -7.0487    0.6826   -2.2838 H         1 <0>         0.1296
     39 H14        -8.6804    1.9979   -3.5745 H         1 <0>         0.1301
     40 H15       -11.7353   -0.8106   -2.5884 H         1 <0>         0.1323
     41 H16       -10.1071   -2.1375   -1.3051 H         1 <0>         0.1330
     42 H17       -12.2953    1.3606   -3.5139 H         1 <0>         0.1058
     43 H18       -11.0205    2.5328   -3.9252 H         1 <0>         0.0887
     44 H19       -11.5729   -0.0677   -5.4546 H         1 <0>         0.1617
     45 H20       -12.2459    3.0367   -7.8203 H         1 <0>         0.4179
@<TRIPOS>BOND
     1    1    2 1
     2    1   26 1
     3    1   27 1
     4    1   28 1
     5    2    3 1
     6    2   29 1
     7    2   30 1
     8    3    8 ar
     9    3    4 ar
    10    4    5 ar
    11    4   31 1
    12    5    6 ar
    13    5   32 1
    14    6    7 ar
    15    6    9 1
    16    7    8 ar
    17    8   33 1
    18    9   10 1
    19    9   34 1
    20    9   35 1
    21   10   11 1
    22   10   36 1
    23   10   37 1
    24   11   12 1
    25   12   17 ar
    26   12   13 ar
    27   13   14 ar
    28   13   38 1
    29   14   15 ar
    30   14   39 1
    31   15   16 ar
    32   15   18 1
    33   16   17 ar
    34   16   40 1
    35   17   41 1
    36   18   19 1
    37   18   42 1
    38   18   43 1
    39   19   24 1
    40   19   20 1
    41   19   44 1
    42   20   21 am
    43   20   25 2
    44   21   22 am
    45   21   45 1
    46   22   23 2
    47   22   24 1
@<TRIPOS>MOLECULE
CHEMBL552680
   21    22     0     0     0
SMALL
USER_CHARGES

@<TRIPOS>ATOM
      1 C1         -0.3600    0.6128    0.3657 C.ar      1 <0>        -0.1110
      2 C2          0.6947    1.4708    0.1159 C.ar      1 <0>        -0.1192
      3 C3          1.9811    0.9745    0.0177 C.ar      1 <0>        -0.0979
      4 C4          2.2130   -0.3798    0.1699 C.ar      1 <0>        -0.0644
      5 C5          1.1584   -1.2376    0.4206 C.ar      1 <0>        -0.0927
      6 C6         -0.1282   -0.7415    0.5173 C.ar      1 <0>        -0.1190
      7 C7          3.6153   -0.9209    0.0619 C.3       1 <0>         0.0825
      8 C8          4.0078   -2.0595    1.0056 C.3       1 <0>        -0.1618
      9 C9          4.5676   -0.6532    1.2291 C.3       1 <0>         0.0187
     10 N1          4.0451    0.1116    2.3692 N.3       1 <0>        -0.8137
     11 F1          4.1600   -0.9326   -1.2266 F         1 <0>        -0.1710
     12 H1         -1.3645    1.0011    0.4468 H         1 <0>         0.1247
     13 H2          0.5135    2.5288   -0.0030 H         1 <0>         0.1255
     14 H3          2.8050    1.6448   -0.1782 H         1 <0>         0.1196
     15 H4          1.3395   -2.2957    0.5391 H         1 <0>         0.1246
     16 H5         -0.9521   -1.4119    0.7128 H         1 <0>         0.1263
     17 H6          3.2517   -2.4171    1.7046 H         1 <0>         0.1187
     18 H7          4.6904   -2.8180    0.6226 H         1 <0>         0.1106
     19 H8          5.6187   -0.4866    0.9931 H         1 <0>         0.0984
     20 H9          4.7198    0.1503    3.1184 H         1 <0>         0.3526
     21 H10         3.7664    1.0389    2.0853 H         1 <0>         0.3484
@<TRIPOS>BOND
     1    1    6 ar
     2    1    2 ar
     3    1   12 1
     4    2    3 ar
     5    2   13 1
     6    3    4 ar
     7    3   14 1
     8    4    5 ar
     9    4    7 1
    10    5    6 ar
    11    5   15 1
    12    6   16 1
    13    7    9 1
    14    7    8 1
    15    7   11 1
    16    8    9 1
    17    8   17 1
    18    8   18 1
    19    9   10 1
    20    9   19 1
    21   10   20 1
    22   10   21 1
@<TRIPOS>MOLECULE
CHEMBL552680__1
   22    23     0     0     0
SMALL
USER_CHARGES

@<TRIPOS>ATOM
      1 C1         -0.1345    1.0529   -0.7974 C.ar      1 <0>        -0.0860
      2 C2          0.4400    1.0032    0.4589 C.ar      1 <0>        -0.1109
      3 C3          1.6736    0.4039    0.6317 C.ar      1 <0>        -0.1080
      4 C4          2.3326   -0.1461   -0.4518 C.ar      1 <0>        -0.1427
      5 C5          1.7578   -0.0973   -1.7080 C.ar      1 <0>        -0.0879
      6 C6          0.5248    0.5033   -1.8810 C.ar      1 <0>        -0.1096
      7 C7          3.6780   -0.7986   -0.2636 C.3       1 <0>         0.1288
      8 C8          3.9742   -2.0559   -1.0835 C.3       1 <0>        -0.1521
      9 C9          3.7100   -2.1673    0.4194 C.3       1 <0>        -0.0786
     10 N1          2.4269   -2.7449    0.8415 N.4       1 <0>        -0.6027
     11 F1          4.7419    0.0742   -0.0115 F         1 <0>        -0.1378
     12 H1         -1.1003    1.5171   -0.9316 H         1 <0>         0.1380
     13 H2         -0.0749    1.4330    1.3055 H         1 <0>         0.1384
     14 H3          2.1227    0.3658    1.6132 H         1 <0>         0.1306
     15 H4          2.2728   -0.5267   -2.5546 H         1 <0>         0.1354
     16 H5          0.0759    0.5418   -2.8626 H         1 <0>         0.1394
     17 H6          3.1960   -2.4112   -1.7590 H         1 <0>         0.1414
     18 H7          4.9982   -2.2033   -1.4268 H         1 <0>         0.1519
     19 H8          4.5601   -2.3879    1.0648 H         1 <0>         0.1936
     20 H9          1.7983   -2.7801    0.0530 H         1 <0>         0.4355
     21 H10         2.5778   -3.6784    1.1933 H         1 <0>         0.4450
     22 H11         2.0234   -2.1727    1.5681 H         1 <0>         0.4383
@<TRIPOS>BOND
     1    1    6 ar
     2    1    2 ar
     3    1   12 1
     4    2    3 ar
     5    2   13 1
     6    3    4 ar
     7    3   14 1
     8    4    5 ar
     9    4    7 1
    10    5    6 ar
    11    5   15 1
    12    6   16 1
    13    7    9 1
    14    7    8 1
    15    7   11 1
    16    8    9 1
    17    8   17 1
    18    8   18 1
    19    9   10 1
    20    9   19 1
    21   10   20 1
    22   10   21 1
    23   10   22 1
@<TRIPOS>MOLECULE
CHEMBL552680__2
   21    22     0     0     0
SMALL
USER_CHARGES

@<TRIPOS>ATOM
      1 C1         -0.0167    1.3781    0.0096 C.ar      1 <0>        -0.1154
      2 C2          1.1709    2.0855    0.0021 C.ar      1 <0>        -0.1148
      3 C3          2.3773    1.4107   -0.0130 C.ar      1 <0>        -0.1024
      4 C4          2.3960    0.0285   -0.0201 C.ar      1 <0>        -0.0729
      5 C5          1.2084   -0.6789   -0.0117 C.ar      1 <0>        -0.1098
      6 C6          0.0021   -0.0041    0.0020 C.ar      1 <0>        -0.1156
      7 C7          3.7112   -0.7071   -0.0376 C.3       1 <0>         0.0880
      8 C8          3.9233   -1.7490   -1.1377 C.3       1 <0>        -0.2155
      9 C9          3.6914   -2.1978    0.3065 C.3       1 <0>         0.0391
     10 N1          4.8422   -2.7396    1.0414 N.3       1 <0>        -0.8103
     11 F1          4.8236    0.0357    0.3723 F         1 <0>        -0.1662
     12 H1         -0.9591    1.9053    0.0259 H         1 <0>         0.1260
     13 H2          1.1563    3.1654    0.0076 H         1 <0>         0.1273
     14 H3          3.3051    1.9634   -0.0196 H         1 <0>         0.1271
     15 H4          1.2231   -1.7588   -0.0176 H         1 <0>         0.1249
     16 H5         -0.9258   -0.5567    0.0082 H         1 <0>         0.1276
     17 H6          3.1116   -1.9024   -1.8489 H         1 <0>         0.1140
     18 H7          4.9297   -1.8558   -1.5425 H         1 <0>         0.1097
     19 H8          2.7272   -2.6464    0.5454 H         1 <0>         0.1350
     20 H9          4.7276   -3.7268    1.2158 H         1 <0>         0.3545
     21 H10         5.7040   -2.5570    0.5495 H         1 <0>         0.3498
@<TRIPOS>BOND
     1    1    6 ar
     2    1    2 ar
     3    1   12 1
     4    2    3 ar
     5    2   13 1
     6    3    4 ar
     7    3   14 1
     8    4    5 ar
     9    4    7 1
    10    5    6 ar
    11    5   15 1
    12    6   16 1
    13    7    9 1
    14    7    8 1
    15    7   11 1
    16    8    9 1
    17    8   17 1
    18    8   18 1
    19    9   10 1
    20    9   19 1
    21   10   20 1
    22   10   21 1
@<TRIPOS>MOLECULE
CHEMBL552680__3
   22    23     0     0     0
SMALL
USER_CHARGES

@<TRIPOS>ATOM
      1 C1         -0.0167    1.3781    0.0096 C.ar      1 <0>        -0.0930
      2 C2          1.1709    2.0855    0.0021 C.ar      1 <0>        -0.1086
      3 C3          2.3773    1.4107   -0.0130 C.ar      1 <0>        -0.0884
      4 C4          2.3960    0.0285   -0.0201 C.ar      1 <0>        -0.1111
      5 C5          1.2084   -0.6789   -0.0117 C.ar      1 <0>        -0.1072
      6 C6          0.0021   -0.0041    0.0020 C.ar      1 <0>        -0.1106
      7 C7          3.7112   -0.7071   -0.0376 C.3       1 <0>         0.1301
      8 C8          3.9233   -1.7490   -1.1377 C.3       1 <0>        -0.1506
      9 C9          3.6914   -2.1978    0.3065 C.3       1 <0>        -0.0850
     10 N1          4.8422   -2.7396    1.0414 N.4       1 <0>        -0.6045
     11 F1          4.8236    0.0357    0.3723 F         1 <0>        -0.1512
     12 H1         -0.9591    1.9053    0.0259 H         1 <0>         0.1356
     13 H2          1.1563    3.1654    0.0076 H         1 <0>         0.1366
     14 H3          3.3051    1.9634   -0.0196 H         1 <0>         0.1326
     15 H4          1.2231   -1.7588   -0.0176 H         1 <0>         0.1246
     16 H5         -0.9258   -0.5567    0.0082 H         1 <0>         0.1358
     17 H6          3.1116   -1.9024   -1.8489 H         1 <0>         0.1541
     18 H7          4.9297   -1.8558   -1.5425 H         1 <0>         0.1407
     19 H8          2.7272   -2.6464    0.5454 H         1 <0>         0.1949
     20 H9          4.9308   -2.2629    1.9263 H         1 <0>         0.4425
     21 H10         4.7039   -3.7259    1.2031 H         1 <0>         0.4456
     22 H11         5.6822   -2.6021    0.4997 H         1 <0>         0.4369
@<TRIPOS>BOND
     1    1    6 ar
     2    1    2 ar
     3    1   12 1
     4    2    3 ar
     5    2   13 1
     6    3    4 ar
     7    3   14 1
     8    4    5 ar
     9    4    7 1
    10    5    6 ar
    11    5   15 1
    12    6   16 1
    13    7    9 1
    14    7    8 1
    15    7   11 1
    16    8    9 1
    17    8   17 1
    18    8   18 1
    19    9   10 1
    20    9   19 1
    21   10   20 1
    22   10   21 1
    23   10   22 1
@<TRIPOS>MOLECULE
CHEMBL552680__4
   21    22     0     0     0
SMALL
USER_CHARGES

@<TRIPOS>ATOM
      1 C1         -0.0167    1.3781    0.0096 C.ar      1 <0>        -0.1148
      2 C2          1.1709    2.0855    0.0021 C.ar      1 <0>        -0.1146
      3 C3          2.3773    1.4107   -0.0130 C.ar      1 <0>        -0.1019
      4 C4          2.3960    0.0285   -0.0201 C.ar      1 <0>        -0.0766
      5 C5          1.2084   -0.6789   -0.0117 C.ar      1 <0>        -0.1108
      6 C6          0.0021   -0.0041    0.0020 C.ar      1 <0>        -0.1155
      7 C7          3.7112   -0.7071   -0.0376 C.3       1 <0>         0.0870
      8 C8          3.9462   -1.7599    1.0474 C.3       1 <0>        -0.1605
      9 C9          3.6840   -2.1943   -0.3960 C.3       1 <0>         0.0158
     10 N1          4.8191   -2.7286   -1.1603 N.3       1 <0>        -0.8176
     11 F1          4.8148    0.0399   -0.4632 F         1 <0>        -0.1639
     12 H1         -0.9591    1.9053    0.0259 H         1 <0>         0.1263
     13 H2          1.1563    3.1654    0.0076 H         1 <0>         0.1277
     14 H3          3.3051    1.9634   -0.0196 H         1 <0>         0.1279
     15 H4          1.2231   -1.7588   -0.0176 H         1 <0>         0.1252
     16 H5         -0.9258   -0.5567    0.0082 H         1 <0>         0.1277
     17 H6          4.9608   -1.8706    1.4300 H         1 <0>         0.1167
     18 H7          3.1496   -1.9205    1.7739 H         1 <0>         0.1129
     19 H8          2.7150   -2.6406   -0.6192 H         1 <0>         0.1040
     20 H9          4.7008   -3.7140   -1.3421 H         1 <0>         0.3535
     21 H10         4.9502   -2.2157   -2.0192 H         1 <0>         0.3517
@<TRIPOS>BOND
     1    1    6 ar
     2    1    2 ar
     3    1   12 1
     4    2    3 ar
     5    2   13 1
     6    3    4 ar
     7    3   14 1
     8    4    5 ar
     9    4    7 1
    10    5    6 ar
    11    5   15 1
    12    6   16 1
    13    7    9 1
    14    7    8 1
    15    7   11 1
    16    8    9 1
    17    8   17 1
    18    8   18 1
    19    9   10 1
    20    9   19 1
    21   10   20 1
    22   10   21 1
@<TRIPOS>MOLECULE
CHEMBL552680__5
   22    23     0     0     0
SMALL
USER_CHARGES

@<TRIPOS>ATOM
      1 C1         -0.0167    1.3781    0.0096 C.ar      1 <0>        -0.0930
      2 C2          1.1709    2.0855    0.0021 C.ar      1 <0>        -0.1086
      3 C3          2.3773    1.4107   -0.0130 C.ar      1 <0>        -0.0883
      4 C4          2.3960    0.0285   -0.0201 C.ar      1 <0>        -0.1111
      5 C5          1.2084   -0.6789   -0.0117 C.ar      1 <0>        -0.1072
      6 C6          0.0021   -0.0041    0.0020 C.ar      1 <0>        -0.1106
      7 C7          3.7112   -0.7071   -0.0376 C.3       1 <0>         0.1301
      8 C8          3.9462   -1.7599    1.0474 C.3       1 <0>        -0.1507
      9 C9          3.6840   -2.1943   -0.3960 C.3       1 <0>        -0.0849
     10 N1          4.8191   -2.7286   -1.1603 N.4       1 <0>        -0.6045
     11 F1          4.8148    0.0399   -0.4632 F         1 <0>        -0.1512
     12 H1         -0.9591    1.9053    0.0259 H         1 <0>         0.1356
     13 H2          1.1563    3.1654    0.0076 H         1 <0>         0.1366
     14 H3          3.3051    1.9634   -0.0196 H         1 <0>         0.1326
     15 H4          1.2231   -1.7588   -0.0176 H         1 <0>         0.1246
     16 H5         -0.9258   -0.5567    0.0082 H         1 <0>         0.1358
     17 H6          4.9608   -1.8706    1.4300 H         1 <0>         0.1407
     18 H7          3.1496   -1.9205    1.7739 H         1 <0>         0.1541
     19 H8          2.7150   -2.6406   -0.6192 H         1 <0>         0.1949
     20 H9          5.6703   -2.5965   -0.6349 H         1 <0>         0.4369
     21 H10         4.6773   -3.7133   -1.3289 H         1 <0>         0.4457
     22 H11         4.8892   -2.2431   -2.0420 H         1 <0>         0.4425
@<TRIPOS>BOND
     1    1    6 ar
     2    1    2 ar
     3    1   12 1
     4    2    3 ar
     5    2   13 1
     6    3    4 ar
     7    3   14 1
     8    4    5 ar
     9    4    7 1
    10    5    6 ar
    11    5   15 1
    12    6   16 1
    13    7    9 1
    14    7    8 1
    15    7   11 1
    16    8    9 1
    17    8   17 1
    18    8   18 1
    19    9   10 1
    20    9   19 1
    21   10   20 1
    22   10   21 1
    23   10   22 1
@<TRIPOS>MOLECULE
CHEMBL552680__6
   21    22     0     0     0
SMALL
USER_CHARGES

@<TRIPOS>ATOM
      1 C1         -0.3892    0.5782   -0.0981 C.ar      1 <0>        -0.1101
      2 C2          0.6718    1.4264   -0.3547 C.ar      1 <0>        -0.1242
      3 C3          1.9651    0.9382   -0.3447 C.ar      1 <0>        -0.1028
      4 C4          2.1973   -0.3981   -0.0777 C.ar      1 <0>        -0.0742
      5 C5          1.1364   -1.2461    0.1798 C.ar      1 <0>        -0.0742
      6 C6         -0.1569   -0.7582    0.1684 C.ar      1 <0>        -0.1226
      7 C7          3.6071   -0.9305   -0.0677 C.3       1 <0>         0.0828
      8 C8          4.6978   -0.0312    0.5174 C.3       1 <0>        -0.2156
      9 C9          4.2266   -1.2643    1.2909 C.3       1 <0>         0.0433
     10 N1          3.4017   -1.0413    2.4857 N.3       1 <0>        -0.8076
     11 F1          3.9527   -1.7435   -1.1525 F         1 <0>        -0.1703
     12 H1         -1.3992    0.9605   -0.1016 H         1 <0>         0.1239
     13 H2          0.4904    2.4704   -0.5633 H         1 <0>         0.1248
     14 H3          2.7939    1.6007   -0.5458 H         1 <0>         0.1222
     15 H4          1.3179   -2.2902    0.3880 H         1 <0>         0.1241
     16 H5         -0.9858   -1.4208    0.3691 H         1 <0>         0.1254
     17 H6          5.6850   -0.0726    0.0571 H         1 <0>         0.1113
     18 H7          4.3957    0.9456    0.8952 H         1 <0>         0.1112
     19 H8          4.9038   -2.1171    1.3393 H         1 <0>         0.1302
     20 H9          3.8690   -1.3753    3.3153 H         1 <0>         0.3539
     21 H10         3.1541   -0.0674    2.5775 H         1 <0>         0.3485
@<TRIPOS>BOND
     1    1    6 ar
     2    1    2 ar
     3    1   12 1
     4    2    3 ar
     5    2   13 1
     6    3    4 ar
     7    3   14 1
     8    4    5 ar
     9    4    7 1
    10    5    6 ar
    11    5   15 1
    12    6   16 1
    13    7    9 1
    14    7    8 1
    15    7   11 1
    16    8    9 1
    17    8   17 1
    18    8   18 1
    19    9   10 1
    20    9   19 1
    21   10   20 1
    22   10   21 1
@<TRIPOS>MOLECULE
CHEMBL552680__7
   22    23     0     0     0
SMALL
USER_CHARGES

@<TRIPOS>ATOM
      1 C1         -0.0180    1.3746    0.0455 C.ar      1 <0>        -0.0860
      2 C2          0.6642    1.1368    1.2240 C.ar      1 <0>        -0.1096
      3 C3          1.8707    0.4625    1.2002 C.ar      1 <0>        -0.0879
      4 C4          2.3947    0.0256   -0.0021 C.ar      1 <0>        -0.1428
      5 C5          1.7120    0.2627   -1.1805 C.ar      1 <0>        -0.1080
      6 C6          0.5062    0.9382   -1.1568 C.ar      1 <0>        -0.1109
      7 C7          3.7105   -0.7087   -0.0281 C.3       1 <0>         0.1288
      8 C8          3.9985   -1.6830    1.1158 C.3       1 <0>        -0.1521
      9 C9          3.6727   -2.2172   -0.2804 C.3       1 <0>        -0.0787
     10 N1          2.3567   -2.8391   -0.4787 N.4       1 <0>        -0.6027
     11 F1          4.7908    0.0075   -0.5547 F         1 <0>        -0.1378
     12 H1         -0.9628    1.8975    0.0646 H         1 <0>         0.1380
     13 H2          0.2548    1.4781    2.1633 H         1 <0>         0.1394
     14 H3          2.4040    0.2773    2.1209 H         1 <0>         0.1354
     15 H4          2.1216   -0.0783   -2.1198 H         1 <0>         0.1306
     16 H5         -0.0269    1.1238   -2.0775 H         1 <0>         0.1384
     17 H6          5.0299   -1.7661    1.4585 H         1 <0>         0.1519
     18 H7          3.2363   -1.7929    1.8872 H         1 <0>         0.1414
     19 H8          4.4898   -2.6518   -0.8563 H         1 <0>         0.1936
     20 H9          1.9435   -2.4878   -1.3295 H         1 <0>         0.4383
     21 H10         2.4643   -3.8401   -0.5454 H         1 <0>         0.4450
     22 H11         1.7584   -2.6165    0.3027 H         1 <0>         0.4355
@<TRIPOS>BOND
     1    1    6 ar
     2    1    2 ar
     3    1   12 1
     4    2    3 ar
     5    2   13 1
     6    3    4 ar
     7    3   14 1
     8    4    5 ar
     9    4    7 1
    10    5    6 ar
    11    5   15 1
    12    6   16 1
    13    7    9 1
    14    7    8 1
    15    7   11 1
    16    8    9 1
    17    8   17 1
    18    8   18 1
    19    9   10 1
    20    9   19 1
    21   10   20 1
    22   10   21 1
    23   10   22 1
@<TRIPOS>MOLECULE
CHEMBL92401
   26    26     0     0     0
SMALL
USER_CHARGES

@<TRIPOS>ATOM
      1 C1         -0.0187    1.5258    0.0104 C.3       1 <0>        -0.1882
      2 C2          0.0021   -0.0041    0.0020 C.3       1 <0>         0.0601
      3 C3          0.7182   -0.4975   -1.2568 C.3       1 <0>        -0.1370
      4 N1          0.7126   -0.4907    1.1921 N.3       1 <0>        -0.4382
      5 N2         -0.1488   -0.6713    2.2368 N.am      1 <0>        -0.5711
      6 C4          0.3134   -1.1153    3.4224 C.2       1 <0>         0.5585
      7 O1          1.4965   -1.3550    3.5620 O.2       1 <0>        -0.5148
      8 C5         -0.6208   -1.3112    4.5553 C.ar      1 <0>        -0.0819
      9 C6         -1.9866   -1.0471    4.4143 C.ar      1 <0>        -0.1465
     10 C7         -2.8221   -1.2440    5.4968 C.ar      1 <0>         0.0996
     11 N3         -2.3474   -1.6737    6.6489 N.ar      1 <0>        -0.4679
     12 C8         -1.0673   -1.9346    6.8244 C.ar      1 <0>         0.1012
     13 C9         -0.1622   -1.7710    5.7936 C.ar      1 <0>        -0.1136
     14 H1          1.0039    1.9031    0.0027 H         1 <0>         0.0650
     15 H2         -0.5459    1.8868   -0.8726 H         1 <0>         0.0718
     16 H3         -0.5289    1.8773    0.9072 H         1 <0>         0.0543
     17 H4         -1.0205   -0.3814    0.0098 H         1 <0>         0.0871
     18 H5          1.7408   -0.1202   -1.2645 H         1 <0>         0.0616
     19 H6          0.7330   -1.5874   -1.2628 H         1 <0>         0.0675
     20 H7          0.1910   -0.1364   -2.1398 H         1 <0>         0.0674
     21 H8          1.4629    0.1343    1.4461 H         1 <0>         0.3475
     22 H9         -1.0932   -0.4800    2.1253 H         1 <0>         0.3997
     23 H10        -2.3823   -0.6941    3.4735 H         1 <0>         0.1363
     24 H11        -3.8785   -1.0427    5.3977 H         1 <0>         0.1640
     25 H12        -0.7219   -2.2846    7.7859 H         1 <0>         0.1668
     26 H13         0.8845   -1.9910    5.9431 H         1 <0>         0.1509
@<TRIPOS>BOND
     1    1    2 1
     2    1   14 1
     3    1   15 1
     4    1   16 1
     5    2    3 1
     6    2    4 1
     7    2   17 1
     8    3   18 1
     9    3   19 1
    10    3   20 1
    11    4    5 1
    12    4   21 1
    13    5    6 am
    14    5   22 1
    15    6    7 2
    16    6    8 1
    17    8   13 ar
    18    8    9 ar
    19    9   10 ar
    20    9   23 1
    21   10   11 ar
    22   10   24 1
    23   11   12 ar
    24   12   13 ar
    25   12   25 1
    26   13   26 1
@<TRIPOS>MOLECULE
CHEMBL267399
   30    33     0     0     0
SMALL
USER_CHARGES

@<TRIPOS>ATOM
      1 C1         -0.0165    1.3677    0.0096 C.ar      1 <0>        -0.1390
      2 C2          1.1469    2.1210    0.0025 C.ar      1 <0>        -0.0574
      3 C3          2.4028    1.5405   -0.0134 C.ar      1 <0>        -0.1379
      4 C4          2.4556    0.1477   -0.0232 C.ar      1 <0>         0.1468
      5 C5          1.2600   -0.6210   -0.0136 C.ar      1 <0>        -0.1252
      6 C6          0.0021   -0.0041    0.0020 C.ar      1 <0>        -0.0451
      7 C7          1.6637   -2.0072   -0.0251 C.2       1 <0>        -0.0290
      8 C8          3.0368   -2.0033   -0.0560 C.2       1 <0>        -0.0039
      9 N1          3.5096   -0.7217   -0.0405 N.pl3     1 <0>        -0.5620
     10 H1          4.4460   -0.4687   -0.0419 H         1 <0>         0.4262
     11 C9          3.7541   -3.2974   -0.1204 C.cat     1 <0>         0.5719
     12 N2          5.0231   -3.5164   -0.1318 N.pl3     1 <0>        -0.6160
     13 C10         5.2854   -4.9638   -0.2070 C.3       1 <0>         0.0604
     14 C11         3.8910   -5.5951    0.0088 C.3       1 <0>         0.0773
     15 N3          2.9894   -4.4582   -0.2126 N.pl3     1 <0>        -0.5677
     16 C12         1.5603   -4.4827   -0.4952 C.3       1 <0>         0.1268
     17 C13         0.8244   -3.2493    0.0047 C.3       1 <0>        -0.0866
     18 H2         -0.9687    1.8772    0.0260 H         1 <0>         0.1347
     19 H3          1.0706    3.1983    0.0093 H         1 <0>         0.1376
     20 H4          3.3015    2.1395   -0.0185 H         1 <0>         0.1419
     21 H5         -0.9105   -0.5816    0.0082 H         1 <0>         0.1433
     22 H6          5.6806   -5.2318   -1.1869 H         1 <0>         0.1255
     23 H7          5.9720   -5.2709    0.5819 H         1 <0>         0.1342
     24 H8          3.7060   -6.3836   -0.7207 H         1 <0>         0.1299
     25 H9          3.7915   -5.9758    1.0253 H         1 <0>         0.1151
     26 H10         1.4186   -4.5612   -1.5730 H         1 <0>         0.0969
     27 H11         1.1259   -5.3639   -0.0232 H         1 <0>         0.1177
     28 H12         0.4989   -3.4273    1.0296 H         1 <0>         0.1067
     29 H13        -0.0567   -3.0914   -0.6173 H         1 <0>         0.1223
     30 H14         5.7063   -2.8287   -0.0964 H         1 <0>         0.4545
@<TRIPOS>BOND
     1    1    6 ar
     2    1    2 ar
     3    1   18 1
     4    2    3 ar
     5    2   19 1
     6    3    4 ar
     7    3   20 1
     8    4    9 1
     9    4    5 ar
    10    5    6 ar
    11    5    7 1
    12    6   21 1
    13    7   17 1
    14    7    8 2
    15    8    9 1
    16    8   11 1
    17    9   10 1
    18   11   15 1
    19   11   12 2
    20   12   13 1
    21   12   30 1
    22   13   14 1
    23   13   22 1
    24   13   23 1
    25   14   15 1
    26   14   24 1
    27   14   25 1
    28   15   16 1
    29   16   17 1
    30   16   26 1
    31   16   27 1
    32   17   28 1
    33   17   29 1
@<TRIPOS>MOLECULE
CHEMBL298006
   32    33     0     0     0
SMALL
USER_CHARGES

@<TRIPOS>ATOM
      1 C1         -0.0178    1.4608    0.0101 C.3       1 <0>         0.0813
      2 N1          0.0021   -0.0041    0.0020 N.pl3     1 <0>        -0.4735
      3 C2          0.0080   -0.7888   -1.1293 C.ar      1 <0>         0.0994
      4 C3         -0.0011   -0.5056   -2.4914 C.ar      1 <0>        -0.1292
      5 C4          0.0094   -1.5368   -3.4046 C.ar      1 <0>        -0.0990
      6 C5          0.0286   -2.8585   -2.9800 C.ar      1 <0>        -0.1479
      7 C6          0.0375   -3.1593   -1.6473 C.ar      1 <0>        -0.0707
      8 C7          0.0280   -2.1296   -0.7043 C.ar      1 <0>        -0.1089
      9 C8          0.0336   -2.0899    0.7601 C.2       1 <0>        -0.1968
     10 C9          0.0234   -0.7961    1.1176 C.2       1 <0>         0.0908
     11 C10         0.0309   -0.2907    2.5373 C.3       1 <0>         0.1133
     12 N2          1.4109    0.0052    2.9446 N.3       1 <0>        -0.5373
     13 C11         2.2162   -1.2219    3.0061 C.3       1 <0>         0.0200
     14 C12         1.4395    0.7186    4.2284 C.3       1 <0>         0.1633
     15 C13         2.8035    1.2075    4.4877 C.1       1 <0>        -0.1870
     16 C14         3.8914    1.5975    4.6946 C.1       1 <0>        -0.1879
     17 H1          1.0048    1.8381    0.0023 H         1 <0>         0.0718
     18 H2         -0.5450    1.8219   -0.8730 H         1 <0>         0.0777
     19 H3         -0.5280    1.8123    0.9069 H         1 <0>         0.0805
     20 H4         -0.0168    0.5193   -2.8316 H         1 <0>         0.1174
     21 H5          0.0023   -1.3149   -4.4616 H         1 <0>         0.1244
     22 H6          0.0363   -3.6553   -3.7091 H         1 <0>         0.1218
     23 H7          0.0517   -4.1898   -1.3244 H         1 <0>         0.1210
     24 H8          0.0479   -2.9403    1.4257 H         1 <0>         0.1440
     25 H9         -0.5698    0.6164    2.6033 H         1 <0>         0.0876
     26 H10        -0.3871   -1.0519    3.1961 H         1 <0>         0.0668
     27 H11         2.2352   -1.6937    2.0237 H         1 <0>         0.0780
     28 H12         3.2333   -0.9742    3.3100 H         1 <0>         0.0698
     29 H13         1.7777   -1.9083    3.7304 H         1 <0>         0.0313
     30 H14         0.7519    1.5634    4.1899 H         1 <0>         0.0978
     31 H15         1.1384    0.0411    5.0273 H         1 <0>         0.0620
     32 H16         4.8643    1.9462    4.8796 H         1 <0>         0.2182
@<TRIPOS>BOND
     1    1    2 1
     2    1   17 1
     3    1   18 1
     4    1   19 1
     5    2   10 1
     6    2    3 1
     7    3    8 ar
     8    3    4 ar
     9    4    5 ar
    10    4   20 1
    11    5    6 ar
    12    5   21 1
    13    6    7 ar
    14    6   22 1
    15    7    8 ar
    16    7   23 1
    17    8    9 1
    18    9   10 2
    19    9   24 1
    20   10   11 1
    21   11   12 1
    22   11   25 1
    23   11   26 1
    24   12   13 1
    25   12   14 1
    26   13   27 1
    27   13   28 1
    28   13   29 1
    29   14   15 1
    30   14   30 1
    31   14   31 1
    32   15   16 3
    33   16   32 1
@<TRIPOS>MOLECULE
CHEMBL387736
   32    34     0     0     0
SMALL
USER_CHARGES

@<TRIPOS>ATOM
      1 C1         -0.0163    1.3542    0.0095 C.2       1 <0>        -0.1681
      2 C2          1.1740    2.0439    0.0018 C.2       1 <0>        -0.0915
      3 C3          2.3534    1.3199   -0.0133 C.2       1 <0>        -0.1371
      4 S1          1.7510   -0.3608   -0.0166 S.3       1 <0>         0.1113
      5 C4          0.0021   -0.0041    0.0020 C.2       1 <0>        -0.1493
      6 C5          3.7372    1.8064   -0.0239 C.2       1 <0>         0.2127
      7 N1          4.0907    3.0480   -0.0150 N.2       1 <0>        -0.2652
      8 N2          5.4699    3.2461   -0.0286 N.pl3     1 <0>        -0.4316
      9 C6          6.1391    1.9358   -0.0498 C.3       1 <0>         0.1687
     10 C7          4.9700    0.9312   -0.0404 C.3       1 <0>        -0.1320
     11 C8          6.9942    1.7574    1.1782 C.ar      1 <0>        -0.0765
     12 C9          6.5488    2.2178    2.4032 C.ar      1 <0>        -0.0908
     13 C10         7.3327    2.0545    3.5298 C.ar      1 <0>        -0.1052
     14 C11         8.5633    1.4300    3.4314 C.ar      1 <0>        -0.0260
     15 C12         9.0085    0.9694    2.2051 C.ar      1 <0>        -0.1038
     16 C13         8.2213    1.1283    1.0802 C.ar      1 <0>        -0.0711
     17 Cl1         9.5486    1.2250    4.8458 Cl        1 <0>        -0.0684
     18 C14         6.0899    4.4427   -0.0236 C.2       1 <0>         0.6030
     19 S2          7.8000    4.5209   -0.0427 S.2       1 <0>        -0.5921
     20 N3          5.3636    5.5779   -0.0035 N.pl3     1 <0>        -0.7894
     21 H1         -0.9556    1.8870    0.0258 H         1 <0>         0.1435
     22 H2          1.1878    3.1238    0.0071 H         1 <0>         0.1423
     23 H3         -0.8298   -0.6928    0.0066 H         1 <0>         0.1949
     24 H4          6.7373    1.8253   -0.9542 H         1 <0>         0.1224
     25 H5          5.0072    0.3064    0.8520 H         1 <0>         0.1192
     26 H6          4.9901    0.3160   -0.9400 H         1 <0>         0.1203
     27 H7          5.5883    2.7056    2.4799 H         1 <0>         0.1163
     28 H8          6.9847    2.4146    4.4867 H         1 <0>         0.1318
     29 H9          9.9693    0.4821    2.1276 H         1 <0>         0.1366
     30 H10         8.5667    0.7645    0.1238 H         1 <0>         0.1354
     31 H11         4.3947    5.5336    0.0073 H         1 <0>         0.4062
     32 H12         5.8099    6.4392    0.0001 H         1 <0>         0.4334
@<TRIPOS>BOND
     1    1    5 2
     2    1    2 1
     3    1   21 1
     4    2    3 2
     5    2   22 1
     6    3    4 1
     7    3    6 1
     8    4    5 1
     9    5   23 1
    10    6   10 1
    11    6    7 2
    12    7    8 1
    13    8    9 1
    14    8   18 1
    15    9   10 1
    16    9   11 1
    17    9   24 1
    18   10   25 1
    19   10   26 1
    20   11   16 ar
    21   11   12 ar
    22   12   13 ar
    23   12   27 1
    24   13   14 ar
    25   13   28 1
    26   14   15 ar
    27   14   17 1
    28   15   16 ar
    29   15   29 1
    30   16   30 1
    31   18   19 2
    32   18   20 1
    33   20   31 1
    34   20   32 1
@<TRIPOS>MOLECULE
CHEMBL387736__1
   32    34     0     0     0
SMALL
USER_CHARGES

@<TRIPOS>ATOM
      1 C1         -0.0163    1.3542    0.0095 C.2       1 <0>        -0.1681
      2 C2          1.1740    2.0439    0.0018 C.2       1 <0>        -0.0915
      3 C3          2.3534    1.3199   -0.0133 C.2       1 <0>        -0.1371
      4 S1          1.7510   -0.3608   -0.0166 S.3       1 <0>         0.1113
      5 C4          0.0021   -0.0041    0.0020 C.2       1 <0>        -0.1493
      6 C5          3.7372    1.8064   -0.0239 C.2       1 <0>         0.2128
      7 N1          4.0907    3.0480   -0.0150 N.2       1 <0>        -0.2653
      8 N2          5.4699    3.2461   -0.0286 N.pl3     1 <0>        -0.4316
      9 C6          6.1391    1.9358   -0.0498 C.3       1 <0>         0.1686
     10 C7          4.9700    0.9312   -0.0404 C.3       1 <0>        -0.1320
     11 C8          6.9662    1.7831   -1.3002 C.ar      1 <0>        -0.0766
     12 C9          6.4983    2.2788   -2.5029 C.ar      1 <0>        -0.0899
     13 C10         7.2564    2.1390   -3.6501 C.ar      1 <0>        -0.1054
     14 C11         8.4838    1.5029   -3.5946 C.ar      1 <0>        -0.0256
     15 C12         8.9515    1.0070   -2.3907 C.ar      1 <0>        -0.1044
     16 C13         8.1950    1.1524   -1.2431 C.ar      1 <0>        -0.0706
     17 Cl1         9.4363    1.3265   -5.0352 Cl        1 <0>        -0.0684
     18 C14         6.0899    4.4427   -0.0236 C.2       1 <0>         0.6030
     19 S2          7.8000    4.5209   -0.0427 S.2       1 <0>        -0.5921
     20 N3          5.3636    5.5779   -0.0035 N.pl3     1 <0>        -0.7894
     21 H1         -0.9556    1.8870    0.0258 H         1 <0>         0.1435
     22 H2          1.1878    3.1238    0.0071 H         1 <0>         0.1423
     23 H3         -0.8298   -0.6928    0.0066 H         1 <0>         0.1949
     24 H4          6.7576    1.8067    0.8384 H         1 <0>         0.1217
     25 H5          5.0072    0.3064    0.8520 H         1 <0>         0.1207
     26 H6          4.9901    0.3160   -0.9400 H         1 <0>         0.1188
     27 H7          5.5400    2.7750   -2.5461 H         1 <0>         0.1163
     28 H8          6.8906    2.5260   -4.5897 H         1 <0>         0.1319
     29 H9          9.9094    0.5101   -2.3468 H         1 <0>         0.1366
     30 H10         8.5622    0.7696   -0.3023 H         1 <0>         0.1355
     31 H11         4.3947    5.5336    0.0073 H         1 <0>         0.4062
     32 H12         5.8099    6.4392    0.0001 H         1 <0>         0.4334
@<TRIPOS>BOND
     1    1    5 2
     2    1    2 1
     3    1   21 1
     4    2    3 2
     5    2   22 1
     6    3    4 1
     7    3    6 1
     8    4    5 1
     9    5   23 1
    10    6   10 1
    11    6    7 2
    12    7    8 1
    13    8    9 1
    14    8   18 1
    15    9   10 1
    16    9   11 1
    17    9   24 1
    18   10   25 1
    19   10   26 1
    20   11   16 ar
    21   11   12 ar
    22   12   13 ar
    23   12   27 1
    24   13   14 ar
    25   13   28 1
    26   14   15 ar
    27   14   17 1
    28   15   16 ar
    29   15   29 1
    30   16   30 1
    31   18   19 2
    32   18   20 1
    33   20   31 1
    34   20   32 1
@<TRIPOS>MOLECULE
CHEMBL414637
   31    32     0     0     0
SMALL
USER_CHARGES

@<TRIPOS>ATOM
      1 C1         -0.0168    1.3865    0.0097 C.ar      1 <0>        -0.2268
      2 C2          1.1645    2.0894    0.0022 C.ar      1 <0>        -0.0050
      3 C3          2.3912    1.4033   -0.0137 C.ar      1 <0>        -0.2344
      4 C4          2.3962    0.0064   -0.0212 C.ar      1 <0>        -0.0060
      5 C5          1.2140   -0.6839   -0.0135 C.ar      1 <0>        -0.1557
      6 C6          0.0021   -0.0041    0.0020 C.ar      1 <0>         0.1724
      7 O1         -1.1639   -0.6976    0.0094 O.3       1 <0>        -0.3059
      8 C7         -2.3722    0.0650    0.0251 C.3       1 <0>         0.0609
      9 C8         -3.5734   -0.8826    0.0314 C.3       1 <0>        -0.1266
     10 C9         -4.8672   -0.0661    0.0482 C.3       1 <0>        -0.1650
     11 C10        -6.0683   -1.0138    0.0546 C.3       1 <0>         0.4551
     12 F1         -6.0150   -1.8265    1.1920 F         1 <0>        -0.1816
     13 F2         -7.2513   -0.2672    0.0699 F         1 <0>        -0.1820
     14 F3         -6.0369   -1.8143   -1.0924 F         1 <0>        -0.1817
     15 C11         3.8212   -0.4935   -0.0372 C.3       1 <0>        -0.0845
     16 C12         4.7147    0.7544   -0.0389 C.3       1 <0>        -0.1727
     17 C13         3.7642    1.9267   -0.0237 C.2       1 <0>         0.4087
     18 O2          4.0791    3.0981   -0.0204 O.2       1 <0>        -0.4480
     19 H1         -0.9591    1.9139    0.0260 H         1 <0>         0.1369
     20 H2          1.1501    3.1693    0.0081 H         1 <0>         0.1335
     21 H3          1.2232   -1.7639   -0.0194 H         1 <0>         0.1384
     22 H4         -2.3967    0.6887    0.9187 H         1 <0>         0.0719
     23 H5         -2.4137    0.6983   -0.8612 H         1 <0>         0.0719
     24 H6         -3.5489   -1.5063   -0.8622 H         1 <0>         0.0915
     25 H7         -3.5319   -1.5159    0.9177 H         1 <0>         0.0914
     26 H8         -4.8917    0.5575    0.9418 H         1 <0>         0.1150
     27 H9         -4.9087    0.5671   -0.8381 H         1 <0>         0.1150
     28 H10         4.0176   -1.0935    0.8513 H         1 <0>         0.0964
     29 H11         4.0009   -1.0839   -0.9357 H         1 <0>         0.0964
     30 H12         5.3456    0.7683    0.8499 H         1 <0>         0.1101
     31 H13         5.3288    0.7779   -0.9391 H         1 <0>         0.1101
@<TRIPOS>BOND
     1    1    6 ar
     2    1    2 ar
     3    1   19 1
     4    2    3 ar
     5    2   20 1
     6    3   17 1
     7    3    4 ar
     8    4    5 ar
     9    4   15 1
    10    5    6 ar
    11    5   21 1
    12    6    7 1
    13    7    8 1
    14    8    9 1
    15    8   22 1
    16    8   23 1
    17    9   10 1
    18    9   24 1
    19    9   25 1
    20   10   11 1
    21   10   26 1
    22   10   27 1
    23   11   12 1
    24   11   13 1
    25   11   14 1
    26   15   16 1
    27   15   28 1
    28   15   29 1
    29   16   17 1
    30   16   30 1
    31   16   31 1
    32   17   18 2
@<TRIPOS>MOLECULE
CHEMBL209027
   37    40     0     0     0
SMALL
USER_CHARGES

@<TRIPOS>ATOM
      1 C1         -0.0184    1.5028    0.0103 C.3       1 <0>        -0.1031
      2 C2          0.0021   -0.0041    0.0020 C.ar      1 <0>         0.0737
      3 C3          0.0058   -0.6942   -1.2072 C.ar      1 <0>        -0.0437
      4 C4          0.0254   -2.0834   -1.1545 C.ar      1 <0>        -0.1679
      5 C5          0.0402   -2.7044    0.1064 C.ar      1 <0>         0.1262
      6 N1          0.0350   -1.9514    1.1967 N.ar      1 <0>        -0.2145
      7 N2          0.0219   -0.6696    1.1393 N.ar      1 <0>        -0.2173
      8 C6          0.0588   -4.1766   -0.0957 C.ar      1 <0>         0.0248
      9 C7          0.0771   -5.2314    0.8022 C.ar      1 <0>        -0.1085
     10 C8          0.0919   -6.5443    0.3347 C.ar      1 <0>         0.1717
     11 C9          0.0884   -6.8020   -1.0288 C.ar      1 <0>        -0.2098
     12 C10         0.0707   -5.7571   -1.9334 C.ar      1 <0>         0.0045
     13 C11         0.0554   -4.4421   -1.4773 C.ar      1 <0>        -0.2067
     14 C12         0.0344   -3.1441   -2.1887 C.2       1 <0>         0.4597
     15 O1          0.0255   -2.9800   -3.3917 O.2       1 <0>        -0.4065
     16 O2          0.1102   -7.5751    1.2167 O.3       1 <0>        -0.2973
     17 C13         0.1246   -8.8957    0.6709 C.3       1 <0>         0.0988
     18 C14         0.1439   -9.9024    1.7922 C.ar      1 <0>        -0.1030
     19 C15         1.3497  -10.3441    2.3038 C.ar      1 <0>        -0.0935
     20 C16         1.3674  -11.2675    3.3323 C.ar      1 <0>        -0.1229
     21 C17         0.1793  -11.7489    3.8495 C.ar      1 <0>        -0.1060
     22 C18        -1.0265  -11.3065    3.3385 C.ar      1 <0>        -0.1229
     23 C19        -1.0443  -10.3799    2.3129 C.ar      1 <0>        -0.0935
     24 H1          1.0042    1.8801    0.0026 H         1 <0>         0.0911
     25 H2         -0.5455    1.8639   -0.8728 H         1 <0>         0.0856
     26 H3         -0.5286    1.8543    0.9071 H         1 <0>         0.0895
     27 H4         -0.0064   -0.1697   -2.1512 H         1 <0>         0.1645
     28 H5          0.0803   -5.0363    1.8645 H         1 <0>         0.1506
     29 H6          0.0999   -7.8218   -1.3841 H         1 <0>         0.1458
     30 H7          0.0687   -5.9609   -2.9940 H         1 <0>         0.1444
     31 H8         -0.7667   -9.0470    0.0621 H         1 <0>         0.0782
     32 H9          1.0131   -9.0236    0.0525 H         1 <0>         0.0782
     33 H10         2.2780   -9.9680    1.8998 H         1 <0>         0.1251
     34 H11         2.3095  -11.6132    3.7316 H         1 <0>         0.1268
     35 H12         0.1931  -12.4709    4.6526 H         1 <0>         0.1258
     36 H13        -1.9548  -11.6829    3.7424 H         1 <0>         0.1268
     37 H14        -1.9864  -10.0314    1.9162 H         1 <0>         0.1251
@<TRIPOS>BOND
     1    1    2 1
     2    1   24 1
     3    1   25 1
     4    1   26 1
     5    2    7 ar
     6    2    3 ar
     7    3    4 ar
     8    3   27 1
     9    4   14 1
    10    4    5 ar
    11    5    6 ar
    12    5    8 1
    13    6    7 ar
    14    8   13 ar
    15    8    9 ar
    16    9   10 ar
    17    9   28 1
    18   10   11 ar
    19   10   16 1
    20   11   12 ar
    21   11   29 1
    22   12   13 ar
    23   12   30 1
    24   13   14 1
    25   14   15 2
    26   16   17 1
    27   17   18 1
    28   17   31 1
    29   17   32 1
    30   18   23 ar
    31   18   19 ar
    32   19   20 ar
    33   19   33 1
    34   20   21 ar
    35   20   34 1
    36   21   22 ar
    37   21   35 1
    38   22   23 ar
    39   22   36 1
    40   23   37 1
@<TRIPOS>MOLECULE
CHEMBL325841
   28    30     0     0     0
SMALL
USER_CHARGES

@<TRIPOS>ATOM
      1 C1         -0.0167    1.3794    0.0096 C.ar      1 <0>        -0.1047
      2 C2          1.1685    2.0935    0.0021 C.ar      1 <0>        -0.1166
      3 C3          2.3774    1.4292   -0.0134 C.ar      1 <0>        -0.0920
      4 C4          2.4033    0.0338   -0.0211 C.ar      1 <0>        -0.0741
      5 C5          1.2043   -0.6805   -0.0130 C.ar      1 <0>        -0.0956
      6 C6          0.0021   -0.0041    0.0020 C.ar      1 <0>        -0.1171
      7 C7          3.6963   -0.6852   -0.0382 C.2       1 <0>         0.0768
      8 C8          4.5712   -0.6048    1.0286 C.2       1 <0>        -0.2403
      9 C9          5.7908   -1.3011    0.9779 C.2       1 <0>         0.5123
     10 O1          6.5561   -1.2249    1.9230 O.2       1 <0>        -0.4584
     11 O2          6.1358   -2.0480   -0.0826 O.3       1 <0>        -0.2710
     12 C10         5.3312   -2.1725   -1.1599 C.ar      1 <0>         0.1695
     13 C11         4.0895   -1.5142   -1.1898 C.ar      1 <0>        -0.1578
     14 C12         3.2527   -1.6454   -2.3003 C.ar      1 <0>        -0.0339
     15 C13         3.6416   -2.4203   -3.3558 C.ar      1 <0>        -0.1652
     16 C14         4.8678   -3.0802   -3.3310 C.ar      1 <0>         0.1699
     17 C15         5.7146   -2.9505   -2.2420 C.ar      1 <0>        -0.1660
     18 O3          5.2414   -3.8471   -4.3872 O.3       1 <0>        -0.4904
     19 H1         -0.9605    1.9042    0.0260 H         1 <0>         0.1279
     20 H2          1.1470    3.1733    0.0081 H         1 <0>         0.1302
     21 H3          3.3018    1.9877   -0.0199 H         1 <0>         0.1286
     22 H4          1.2176   -1.7604   -0.0192 H         1 <0>         0.1281
     23 H5         -0.9265   -0.5556    0.0079 H         1 <0>         0.1301
     24 H6          4.3196   -0.0109    1.8949 H         1 <0>         0.1671
     25 H7          2.3007   -1.1360   -2.3242 H         1 <0>         0.1439
     26 H8          2.9943   -2.5220   -4.2143 H         1 <0>         0.1436
     27 H9          6.6641   -3.4650   -2.2299 H         1 <0>         0.1527
     28 H10         5.7349   -3.3674   -5.0664 H         1 <0>         0.4024
@<TRIPOS>BOND
     1    1    6 ar
     2    1    2 ar
     3    1   19 1
     4    2    3 ar
     5    2   20 1
     6    3    4 ar
     7    3   21 1
     8    4    5 ar
     9    4    7 1
    10    5    6 ar
    11    5   22 1
    12    6   23 1
    13    7   13 1
    14    7    8 2
    15    8    9 1
    16    8   24 1
    17    9   10 2
    18    9   11 1
    19   11   12 1
    20   12   17 ar
    21   12   13 ar
    22   13   14 ar
    23   14   15 ar
    24   14   25 1
    25   15   16 ar
    26   15   26 1
    27   16   17 ar
    28   16   18 1
    29   17   27 1
    30   18   28 1
@<TRIPOS>MOLECULE
CHEMBL39537
   25    26     0     0     0
SMALL
USER_CHARGES

@<TRIPOS>ATOM
      1 C1         -0.0166    1.3751    0.0096 C.ar      1 <0>        -0.0859
      2 C2          1.1740    2.0780    0.0020 C.ar      1 <0>        -0.1090
      3 C3          2.3723    1.3951   -0.0161 C.ar      1 <0>        -0.1266
      4 C4          2.3932    0.0062   -0.0252 C.ar      1 <0>        -0.1473
      5 C5          1.2079   -0.6937   -0.0125 C.ar      1 <0>        -0.0374
      6 C6          0.0021   -0.0041    0.0020 C.ar      1 <0>        -0.1123
      7 C7          1.1552   -2.1990   -0.0052 C.3       1 <0>        -0.0976
      8 C8          2.4928   -2.7856   -0.4516 C.3       1 <0>        -0.1161
      9 C9          3.6072   -2.1349    0.3764 C.3       1 <0>        -0.1437
     10 C10         3.7365   -0.6749   -0.0530 C.3       1 <0>         0.0864
     11 H1          4.1404   -0.6321   -1.0645 H         1 <0>         0.1482
     12 N1          4.6510    0.0201    0.8628 N.4       1 <0>        -0.6367
     13 H2         -0.9580    1.9042    0.0259 H         1 <0>         0.1374
     14 H3          1.1658    3.1579    0.0099 H         1 <0>         0.1362
     15 H4          3.3019    1.9448   -0.0236 H         1 <0>         0.1194
     16 H5         -0.9284   -0.5523    0.0071 H         1 <0>         0.1365
     17 H6          0.9293   -2.5458    1.0032 H         1 <0>         0.0904
     18 H7          0.3711   -2.5345   -0.6840 H         1 <0>         0.0925
     19 H8          2.4944   -3.8631   -0.2867 H         1 <0>         0.0933
     20 H9          2.6510   -2.5755   -1.5094 H         1 <0>         0.0793
     21 H10         3.3546   -2.1851    1.4355 H         1 <0>         0.0907
     22 H11         4.5484   -2.6548    0.1979 H         1 <0>         0.0968
     23 H12         4.2762   -0.0095    1.7991 H         1 <0>         0.4348
     24 H13         5.5521   -0.4336    0.8467 H         1 <0>         0.4376
     25 H14         4.7529    0.9808    0.5714 H         1 <0>         0.4331
@<TRIPOS>BOND
     1    1    6 ar
     2    1    2 ar
     3    1   13 1
     4    2    3 ar
     5    2   14 1
     6    3    4 ar
     7    3   15 1
     8    4   10 1
     9    4    5 ar
    10    5    6 ar
    11    5    7 1
    12    6   16 1
    13    7    8 1
    14    7   17 1
    15    7   18 1
    16    8    9 1
    17    8   19 1
    18    8   20 1
    19    9   10 1
    20    9   21 1
    21    9   22 1
    22   10   11 1
    23   10   12 1
    24   12   23 1
    25   12   24 1
    26   12   25 1
@<TRIPOS>MOLECULE
CHEMBL26138
   38    40     0     0     0
SMALL
USER_CHARGES

@<TRIPOS>ATOM
      1 C1         -0.0178    1.4608    0.0101 C.3       1 <0>         0.0683
      2 N1          0.0021   -0.0041    0.0020 N.pl3     1 <0>        -0.4076
      3 C2          0.0086   -0.8126   -1.0981 C.2       1 <0>         0.3219
      4 N2          0.0273   -2.0762   -0.7086 N.2       1 <0>        -0.4878
      5 C3          0.0336   -2.1396    0.6207 C.2       1 <0>         0.3242
      6 C4          0.0238   -0.8345    1.1065 C.2       1 <0>        -0.1479
      7 C5          0.0334   -0.6204    2.5005 C.2       1 <0>         0.5944
      8 O1          0.0219    0.5119    2.9498 O.2       1 <0>        -0.5124
      9 N3          0.0551   -1.6834    3.3309 N.am      1 <0>        -0.5517
     10 C6          0.0676   -2.9383    2.8497 C.2       1 <0>         0.7075
     11 O2          0.0871   -3.8714    3.6292 O.2       1 <0>        -0.5312
     12 N4          0.0510   -3.1889    1.5272 N.am      1 <0>        -0.5112
     13 C7          0.0679   -4.5721    1.0446 C.3       1 <0>         0.0892
     14 C8          0.0656   -1.4666    4.7797 C.3       1 <0>         0.0837
     15 C9         -0.0040   -0.3532   -2.4893 C.2       1 <0>        -0.1128
     16 C10         0.0042   -1.2498   -3.4949 C.2       1 <0>        -0.0263
     17 C11        -0.0084   -0.7882   -4.8930 C.ar      1 <0>        -0.0596
     18 C12        -0.0231    0.5802   -5.1810 C.ar      1 <0>        -0.1011
     19 C13        -0.0350    1.0055   -6.4925 C.ar      1 <0>        -0.1060
     20 C14        -0.0323    0.0822   -7.5234 C.ar      1 <0>        -0.0999
     21 C15        -0.0182   -1.2748   -7.2469 C.ar      1 <0>        -0.0359
     22 C16         0.0001   -1.7155   -5.9389 C.ar      1 <0>        -0.0865
     23 Cl1        -0.0155   -2.4239   -8.5482 Cl        1 <0>        -0.0625
     24 H1          1.0048    1.8381    0.0023 H         1 <0>         0.0891
     25 H2         -0.5450    1.8219   -0.8730 H         1 <0>         0.0963
     26 H3         -0.5280    1.8123    0.9069 H         1 <0>         0.1035
     27 H4          1.0996   -4.9013    0.9212 H         1 <0>         0.0734
     28 H5         -0.4347   -5.2151    1.7672 H         1 <0>         0.0940
     29 H6         -0.4488   -4.6289    0.0865 H         1 <0>         0.0922
     30 H7         -0.9593   -1.4263    5.1485 H         1 <0>         0.0770
     31 H8          0.5948   -2.2861    5.2659 H         1 <0>         0.0969
     32 H9          0.5692   -0.5259    5.0026 H         1 <0>         0.0950
     33 H10        -0.0198    0.7042   -2.7087 H         1 <0>         0.1430
     34 H11         0.0201   -2.3072   -3.2755 H         1 <0>         0.1434
     35 H12        -0.0256    1.3023   -4.3778 H         1 <0>         0.1330
     36 H13        -0.0467    2.0621   -6.7159 H         1 <0>         0.1372
     37 H14        -0.0416    0.4216   -8.5487 H         1 <0>         0.1367
     38 H15         0.0163   -2.7738   -5.7242 H         1 <0>         0.1406
@<TRIPOS>BOND
     1    1    2 1
     2    1   24 1
     3    1   25 1
     4    1   26 1
     5    2    6 1
     6    2    3 1
     7    3    4 2
     8    3   15 1
     9    4    5 1
    10    5   12 1
    11    5    6 2
    12    6    7 1
    13    7    8 2
    14    7    9 am
    15    9   10 am
    16    9   14 1
    17   10   11 2
    18   10   12 am
    19   12   13 1
    20   13   27 1
    21   13   28 1
    22   13   29 1
    23   14   30 1
    24   14   31 1
    25   14   32 1
    26   15   16 2
    27   15   33 1
    28   16   17 1
    29   16   34 1
    30   17   22 ar
    31   17   18 ar
    32   18   19 ar
    33   18   35 1
    34   19   20 ar
    35   19   36 1
    36   20   21 ar
    37   20   37 1
    38   21   22 ar
    39   21   23 1
    40   22   38 1
@<TRIPOS>MOLECULE
CHEMBL16623
   39    41     0     0     0
SMALL
USER_CHARGES

@<TRIPOS>ATOM
      1 C1         -0.0167    1.3781    0.0096 C.ar      1 <0>        -0.1063
      2 C2          1.1709    2.0855    0.0021 C.ar      1 <0>        -0.1228
      3 C3          2.3773    1.4107   -0.0130 C.ar      1 <0>        -0.0941
      4 C4          2.3960    0.0285   -0.0201 C.ar      1 <0>        -0.1028
      5 C5          1.2084   -0.6789   -0.0117 C.ar      1 <0>        -0.0941
      6 C6          0.0021   -0.0041    0.0020 C.ar      1 <0>        -0.1228
      7 C7          3.7112   -0.7071   -0.0376 C.3       1 <0>         0.0989
      8 O1          4.1410   -0.9464    1.3041 O.3       1 <0>        -0.3009
      9 C8          5.3182   -1.6047    1.4665 C.ar      1 <0>         0.1681
     10 C9          6.0463   -2.0063    0.3543 C.ar      1 <0>        -0.2096
     11 C10         7.2413   -2.6746    0.5152 C.ar      1 <0>        -0.0315
     12 C11         7.7193   -2.9470    1.7976 C.ar      1 <0>        -0.0745
     13 C12         6.9850   -2.5414    2.9129 C.ar      1 <0>        -0.0202
     14 C13         5.7933   -1.8693    2.7442 C.ar      1 <0>        -0.1529
     15 C14         9.0008   -3.6642    1.9745 C.2       1 <0>         0.1781
     16 N1          9.6048   -4.0125    3.0838 N.2       1 <0>        -0.2693
     17 N2         10.8055   -4.6833    3.0428 N.pl3     1 <0>        -0.3598
     18 C15        11.3472   -4.9745    1.8336 C.2       1 <0>         0.2474
     19 S1         12.8076   -5.7878    1.4639 S.2       1 <0>        -0.3888
     20 S2         10.1214   -4.2865    0.7312 S.3       1 <0>         0.0436
     21 C16        11.4855   -5.0748    4.2800 C.3       1 <0>         0.1219
     22 C17        12.4255   -3.9517    4.7226 C.3       1 <0>        -0.0379
     23 C18        13.1087   -4.3450    5.9657 C.1       1 <0>         0.2063
     24 N3         13.6360   -4.6485    6.9251 N.1       1 <0>        -0.4100
     25 H1         -0.9591    1.9053    0.0259 H         1 <0>         0.1258
     26 H2          1.1563    3.1654    0.0076 H         1 <0>         0.1268
     27 H3          3.3051    1.9634   -0.0196 H         1 <0>         0.1250
     28 H4          1.2231   -1.7588   -0.0176 H         1 <0>         0.1249
     29 H5         -0.9258   -0.5567    0.0082 H         1 <0>         0.1267
     30 H6          3.5884   -1.6586   -0.5549 H         1 <0>         0.0771
     31 H7          4.4573   -0.1052   -0.5563 H         1 <0>         0.0772
     32 H8          5.6758   -1.7952   -0.6379 H         1 <0>         0.1421
     33 H9          7.8067   -2.9873   -0.3503 H         1 <0>         0.1355
     34 H10         7.3518   -2.7505    3.9070 H         1 <0>         0.1451
     35 H11         5.2265   -1.5516    3.6069 H         1 <0>         0.1448
     36 H12        10.7454   -5.2574    5.0591 H         1 <0>         0.1173
     37 H13        12.0617   -5.9835    4.1060 H         1 <0>         0.1265
     38 H14        13.1656   -3.7691    3.9434 H         1 <0>         0.1205
     39 H15        11.8493   -3.0430    4.8965 H         1 <0>         0.1187
@<TRIPOS>BOND
     1    1    6 ar
     2    1    2 ar
     3    1   25 1
     4    2    3 ar
     5    2   26 1
     6    3    4 ar
     7    3   27 1
     8    4    5 ar
     9    4    7 1
    10    5    6 ar
    11    5   28 1
    12    6   29 1
    13    7    8 1
    14    7   30 1
    15    7   31 1
    16    8    9 1
    17    9   14 ar
    18    9   10 ar
    19   10   11 ar
    20   10   32 1
    21   11   12 ar
    22   11   33 1
    23   12   13 ar
    24   12   15 1
    25   13   14 ar
    26   13   34 1
    27   14   35 1
    28   15   20 1
    29   15   16 2
    30   16   17 1
    31   17   18 1
    32   17   21 1
    33   18   19 2
    34   18   20 1
    35   21   22 1
    36   21   36 1
    37   21   37 1
    38   22   23 1
    39   22   38 1
    40   22   39 1
    41   23   24 3
@<TRIPOS>MOLECULE
CHEMBL222368
   32    33     0     0     0
SMALL
USER_CHARGES

@<TRIPOS>ATOM
      1 C1         -0.0167    1.3781    0.0096 C.ar      1 <0>        -0.1036
      2 C2          1.1709    2.0855    0.0021 C.ar      1 <0>        -0.1143
      3 C3          2.3773    1.4107   -0.0130 C.ar      1 <0>        -0.1105
      4 C4          2.3960    0.0285   -0.0201 C.ar      1 <0>        -0.1101
      5 C5          1.2084   -0.6789   -0.0117 C.ar      1 <0>        -0.1096
      6 C6          0.0021   -0.0041    0.0020 C.ar      1 <0>        -0.1138
      7 C7          3.7112   -0.7071   -0.0376 C.3       1 <0>        -0.1000
      8 C8          4.1714   -0.9633    1.3989 C.3       1 <0>        -0.0072
      9 N1          5.4533   -1.6804    1.3819 N.4       1 <0>        -0.5115
     10 C9          5.8952   -1.9263    2.7611 C.3       1 <0>         0.0802
     11 C10         7.2103   -2.6620    2.7437 C.2       1 <0>        -0.0884
     12 C11         7.3696   -3.9986    2.8247 C.2       1 <0>        -0.1301
     13 C12         8.7526   -4.2624    2.7724 C.2       1 <0>        -0.2017
     14 C13         9.3857   -3.0770    2.6614 C.2       1 <0>         0.0409
     15 N2          8.4440   -2.0913    2.6373 N.pl3     1 <0>        -0.5536
     16 H1          8.6223   -1.1410    2.5600 H         1 <0>         0.4193
     17 H2         -0.9591    1.9053    0.0259 H         1 <0>         0.1300
     18 H3          1.1563    3.1654    0.0076 H         1 <0>         0.1295
     19 H4          3.3051    1.9634   -0.0196 H         1 <0>         0.1235
     20 H5          1.2231   -1.7588   -0.0176 H         1 <0>         0.1249
     21 H6         -0.9258   -0.5567    0.0082 H         1 <0>         0.1300
     22 H7          3.5884   -1.6586   -0.5549 H         1 <0>         0.0962
     23 H8          4.4573   -0.1052   -0.5563 H         1 <0>         0.0943
     24 H9          4.2941   -0.0118    1.9163 H         1 <0>         0.1326
     25 H10         3.4252   -1.5652    1.9176 H         1 <0>         0.1356
     26 H11         5.3397   -2.5612    0.9030 H         1 <0>         0.4308
     27 H12         6.0180   -0.9748    3.2785 H         1 <0>         0.1339
     28 H13         5.1490   -2.5283    3.2798 H         1 <0>         0.1506
     29 H14         6.5818   -4.7320    2.9137 H         1 <0>         0.1484
     30 H15         9.2198   -5.2352    2.8139 H         1 <0>         0.1507
     31 H16        10.4543   -2.9334    2.5981 H         1 <0>         0.1796
     32 H17         6.1440   -1.1232    0.9018 H         1 <0>         0.4238
@<TRIPOS>BOND
     1    1    6 ar
     2    1    2 ar
     3    1   17 1
     4    2    3 ar
     5    2   18 1
     6    3    4 ar
     7    3   19 1
     8    4    5 ar
     9    4    7 1
    10    5    6 ar
    11    5   20 1
    12    6   21 1
    13    7    8 1
    14    7   22 1
    15    7   23 1
    16    8    9 1
    17    8   24 1
    18    8   25 1
    19    9   10 1
    20    9   26 1
    21    9   32 1
    22   10   11 1
    23   10   27 1
    24   10   28 1
    25   11   15 1
    26   11   12 2
    27   12   13 1
    28   12   29 1
    29   13   14 2
    30   13   30 1
    31   14   15 1
    32   14   31 1
    33   15   16 1
@<TRIPOS>MOLECULE
CHEMBL222368__1
   31    32     0     0     0
SMALL
USER_CHARGES

@<TRIPOS>ATOM
      1 C1         -0.0167    1.3781    0.0096 C.ar      1 <0>        -0.1238
      2 C2          1.1709    2.0855    0.0021 C.ar      1 <0>        -0.1183
      3 C3          2.3773    1.4107   -0.0130 C.ar      1 <0>        -0.1159
      4 C4          2.3960    0.0285   -0.0201 C.ar      1 <0>        -0.0830
      5 C5          1.2084   -0.6789   -0.0117 C.ar      1 <0>        -0.1175
      6 C6          0.0021   -0.0041    0.0020 C.ar      1 <0>        -0.1183
      7 C7          3.7112   -0.7071   -0.0376 C.3       1 <0>        -0.0786
      8 C8          4.1714   -0.9633    1.3989 C.3       1 <0>         0.0642
      9 N1          5.4533   -1.6804    1.3819 N.3       1 <0>        -0.6900
     10 C9          5.9271   -1.9442    2.7471 C.3       1 <0>         0.1264
     11 C10         7.2414   -2.6794    2.6895 C.2       1 <0>         0.0159
     12 C11         7.4023   -4.0169    2.7494 C.2       1 <0>        -0.1928
     13 C12         8.7836   -4.2799    2.6614 C.2       1 <0>        -0.2024
     14 C13         9.4142   -3.0930    2.5512 C.2       1 <0>        -0.0112
     15 N2          8.4723   -2.1073    2.5619 N.pl3     1 <0>        -0.5474
     16 H1          8.6490   -1.1560    2.4928 H         1 <0>         0.4141
     17 H2         -0.9591    1.9053    0.0259 H         1 <0>         0.1215
     18 H3          1.1563    3.1654    0.0076 H         1 <0>         0.1221
     19 H4          3.3051    1.9634   -0.0196 H         1 <0>         0.1218
     20 H5          1.2231   -1.7588   -0.0176 H         1 <0>         0.1204
     21 H6         -0.9258   -0.5567    0.0082 H         1 <0>         0.1219
     22 H7          3.5884   -1.6586   -0.5549 H         1 <0>         0.0721
     23 H8          4.4573   -0.1052   -0.5563 H         1 <0>         0.0813
     24 H9          4.2941   -0.0118    1.9163 H         1 <0>         0.0739
     25 H10         3.4252   -1.5652    1.9176 H         1 <0>         0.0340
     26 H11         5.3819   -2.5362    0.8522 H         1 <0>         0.3465
     27 H12         6.0621   -0.9995    3.2738 H         1 <0>         0.0777
     28 H13         5.1931   -2.5529    3.2752 H         1 <0>         0.0546
     29 H14         6.6167   -4.7515    2.8472 H         1 <0>         0.1321
     30 H15         9.2515   -5.2531    2.6794 H         1 <0>         0.1349
     31 H16        10.4810   -2.9485    2.4649 H         1 <0>         0.1637
@<TRIPOS>BOND
     1    1    6 ar
     2    1    2 ar
     3    1   17 1
     4    2    3 ar
     5    2   18 1
     6    3    4 ar
     7    3   19 1
     8    4    5 ar
     9    4    7 1
    10    5    6 ar
    11    5   20 1
    12    6   21 1
    13    7    8 1
    14    7   22 1
    15    7   23 1
    16    8    9 1
    17    8   24 1
    18    8   25 1
    19    9   10 1
    20    9   26 1
    21   10   11 1
    22   10   27 1
    23   10   28 1
    24   11   15 1
    25   11   12 2
    26   12   13 1
    27   12   29 1
    28   13   14 2
    29   13   30 1
    30   14   15 1
    31   14   31 1
    32   15   16 1
@<TRIPOS>MOLECULE
CHEMBL315361
   19    20     0     0     0
SMALL
USER_CHARGES

@<TRIPOS>ATOM
      1 C1         -0.0166    1.3741    0.0096 C.ar      1 <0>        -0.1581
      2 C2          1.1730    2.0874    0.0021 C.ar      1 <0>        -0.0701
      3 C3          2.3868    1.4346   -0.0162 C.ar      1 <0>        -0.1475
      4 C4          2.4295    0.0442   -0.0253 C.ar      1 <0>         0.1427
      5 C5          1.2233   -0.6741   -0.0124 C.ar      1 <0>        -0.2154
      6 C6          0.0021   -0.0041    0.0020 C.ar      1 <0>        -0.0359
      7 C7          1.2907   -2.1507   -0.0067 C.2       1 <0>         0.4199
      8 O1          0.3121   -2.8432   -0.2205 O.2       1 <0>        -0.4293
      9 C8          2.6197   -2.7351    0.2741 C.2       1 <0>        -0.3116
     10 C9          3.7132   -1.8958    0.2389 C.2       1 <0>         0.1064
     11 O2          3.6115   -0.6024   -0.0504 O.3       1 <0>        -0.2292
     12 C10         2.7699   -4.1628    0.5811 C.2       1 <0>         0.5384
     13 O3          3.8793   -4.6260    0.8105 O.co2     1 <0>        -0.6952
     14 O4          1.7858   -4.8899    0.6075 O.co2     1 <0>        -0.6616
     15 H1         -0.9598    1.8999    0.0259 H         1 <0>         0.1303
     16 H2          1.1479    3.1671    0.0103 H         1 <0>         0.1333
     17 H3          3.3052    2.0028   -0.0238 H         1 <0>         0.1383
     18 H4         -0.9235   -0.5606    0.0076 H         1 <0>         0.1380
     19 H5          4.6892   -2.3048    0.4549 H         1 <0>         0.2066
@<TRIPOS>BOND
     1    1    6 ar
     2    1    2 ar
     3    1   15 1
     4    2    3 ar
     5    2   16 1
     6    3    4 ar
     7    3   17 1
     8    4   11 1
     9    4    5 ar
    10    5    6 ar
    11    5    7 1
    12    6   18 1
    13    7    8 2
    14    7    9 1
    15    9   10 2
    16    9   12 1
    17   10   11 1
    18   10   19 1
    19   12   13 2
    20   12   14 1
@<TRIPOS>MOLECULE
CHEMBL469350
   44    47     0     0     0
SMALL
USER_CHARGES

@<TRIPOS>ATOM
      1 C1          0.0031    1.4018    0.0427 C.ar      1 <0>        -0.1221
      2 C2          1.1949    2.1021    0.0333 C.ar      1 <0>        -0.1188
      3 C3          2.3971    1.4202    0.0098 C.ar      1 <0>        -0.1117
      4 C4          2.4076    0.0380   -0.0040 C.ar      1 <0>        -0.0768
      5 C5          1.2158   -0.6624    0.0063 C.ar      1 <0>        -0.1130
      6 C6          0.0136    0.0195    0.0284 C.ar      1 <0>        -0.1186
      7 C7          3.7182   -0.7054   -0.0307 C.3       1 <0>        -0.0422
      8 C8          4.1761   -0.9672    1.3810 C.ar      1 <0>        -0.1052
      9 C9          5.0544   -0.0962    1.9957 C.ar      1 <0>        -0.0928
     10 C10         5.4746   -0.3353    3.2911 C.ar      1 <0>        -0.1341
     11 C11         5.0173   -1.4468    3.9755 C.ar      1 <0>        -0.1011
     12 C12         4.1396   -2.3217    3.3666 C.ar      1 <0>        -0.1293
     13 C13         3.7110   -2.0813    2.0673 C.ar      1 <0>         0.1534
     14 N1          2.8176   -2.9622    1.4497 N.am      1 <0>        -0.6594
     15 C14         1.9947   -3.7226    2.1989 C.2       1 <0>         0.5812
     16 O1          1.9569   -3.5712    3.4051 O.2       1 <0>        -0.5120
     17 C15         1.1416   -4.7366    1.5570 C.2       1 <0>        -0.2866
     18 C16         0.2798   -5.5308    2.3016 C.2       1 <0>         0.0911
     19 C17        -0.4873   -6.5077    1.6161 C.ar      1 <0>        -0.1720
     20 C18        -1.5140   -7.1984    2.2764 C.ar      1 <0>        -0.0387
     21 C19        -2.2707   -8.1054    1.5917 C.ar      1 <0>        -0.1417
     22 C20        -2.0281   -8.3564    0.2481 C.ar      1 <0>        -0.0465
     23 C21        -1.0108   -7.7032   -0.4162 C.ar      1 <0>        -0.1360
     24 C22        -0.2236   -6.7818    0.2612 C.ar      1 <0>         0.1523
     25 O2          0.8055   -6.1655   -0.3685 O.3       1 <0>        -0.2668
     26 C23         1.1642   -4.9446    0.0976 C.2       1 <0>         0.5282
     27 O3          1.4967   -4.0522   -0.6597 O.2       1 <0>        -0.4400
     28 H1         -0.9361    1.9345    0.0656 H         1 <0>         0.1207
     29 H2          1.1867    3.1820    0.0441 H         1 <0>         0.1221
     30 H3          3.3282    1.9674    0.0017 H         1 <0>         0.1216
     31 H4          1.2240   -1.7423   -0.0049 H         1 <0>         0.1204
     32 H5         -0.9175   -0.5276    0.0360 H         1 <0>         0.1184
     33 H6          3.5875   -1.6537   -0.5520 H         1 <0>         0.0767
     34 H7          4.4657   -0.1054   -0.5497 H         1 <0>         0.0891
     35 H8          5.4135    0.7725    1.4638 H         1 <0>         0.1263
     36 H9          6.1616    0.3470    3.7693 H         1 <0>         0.1240
     37 H10         5.3475   -1.6308    4.9872 H         1 <0>         0.1259
     38 H11         3.7832   -3.1897    3.9015 H         1 <0>         0.1452
     39 H12         2.7901   -3.0260    0.4822 H         1 <0>         0.4180
     40 H13         0.1962   -5.4086    3.3714 H         1 <0>         0.1691
     41 H14        -1.7052   -7.0137    3.3232 H         1 <0>         0.1459
     42 H15        -3.0646   -8.6324    2.0999 H         1 <0>         0.1412
     43 H16        -2.6415   -9.0700   -0.2820 H         1 <0>         0.1456
     44 H17        -0.8273   -7.9079   -1.4606 H         1 <0>         0.1490
@<TRIPOS>BOND
     1    1    6 ar
     2    1    2 ar
     3    1   28 1
     4    2    3 ar
     5    2   29 1
     6    3    4 ar
     7    3   30 1
     8    4    5 ar
     9    4    7 1
    10    5    6 ar
    11    5   31 1
    12    6   32 1
    13    7    8 1
    14    7   33 1
    15    7   34 1
    16    8   13 ar
    17    8    9 ar
    18    9   10 ar
    19    9   35 1
    20   10   11 ar
    21   10   36 1
    22   11   12 ar
    23   11   37 1
    24   12   13 ar
    25   12   38 1
    26   13   14 1
    27   14   15 am
    28   14   39 1
    29   15   16 2
    30   15   17 1
    31   17   26 1
    32   17   18 2
    33   18   19 1
    34   18   40 1
    35   19   24 ar
    36   19   20 ar
    37   20   21 ar
    38   20   41 1
    39   21   22 ar
    40   21   42 1
    41   22   23 ar
    42   22   43 1
    43   23   24 ar
    44   23   44 1
    45   24   25 1
    46   25   26 1
    47   26   27 2
@<TRIPOS>MOLECULE
CHEMBL503807
   42    44     0     0     0
SMALL
USER_CHARGES

@<TRIPOS>ATOM
      1 C1         -0.3098   -3.3324    1.7148 C.3       1 <0>         0.0807
      2 N1         -0.6165   -2.2131    0.8208 N.pl3     1 <0>        -0.4515
      3 C2         -0.8607   -2.3102   -0.5287 C.ar      1 <0>         0.1084
      4 C3         -0.8979   -3.3830   -1.4153 C.ar      1 <0>        -0.1303
      5 C4         -1.1780   -3.1625   -2.7450 C.ar      1 <0>        -0.0878
      6 C5         -1.4242   -1.8778   -3.2134 C.ar      1 <0>        -0.1477
      7 C6         -1.3933   -0.8106   -2.3638 C.ar      1 <0>        -0.0629
      8 C7         -1.1110   -1.0089   -1.0059 C.ar      1 <0>        -0.1194
      9 C8         -1.0078   -0.1352    0.1035 C.2       1 <0>        -0.1633
     10 C9         -0.7138   -0.8872    1.1962 C.2       1 <0>         0.0215
     11 C10        -0.5260   -0.3715    2.5606 C.2       1 <0>         0.5825
     12 O1         -0.4918   -1.1408    3.5023 O.2       1 <0>        -0.5345
     13 N2         -0.3918    0.9535    2.7677 N.am      1 <0>        -0.6035
     14 C11        -0.6107    1.8931    1.6651 C.3       1 <0>         0.0586
     15 C12        -0.0272    1.4542    4.0953 C.3       1 <0>         0.1227
     16 C13         1.4963    1.5419    4.2065 C.3       1 <0>        -0.0950
     17 C14         1.8714    2.0569    5.5722 C.ar      1 <0>        -0.0836
     18 C15         2.0035    3.4162    5.7860 C.ar      1 <0>        -0.1162
     19 C16         2.3476    3.8887    7.0387 C.ar      1 <0>        -0.1187
     20 C17         2.5592    3.0018    8.0777 C.ar      1 <0>        -0.1220
     21 C18         2.4262    1.6425    7.8642 C.ar      1 <0>        -0.1175
     22 C19         2.0779    1.1704    6.6125 C.ar      1 <0>        -0.1129
     23 H1         -1.2203   -3.6529    2.2212 H         1 <0>         0.0750
     24 H2          0.0938   -4.1615    1.1337 H         1 <0>         0.0814
     25 H3          0.4252   -3.0156    2.4547 H         1 <0>         0.0909
     26 H4         -0.7073   -4.3853   -1.0610 H         1 <0>         0.1210
     27 H5         -1.2063   -3.9963   -3.4309 H         1 <0>         0.1278
     28 H6         -1.6416   -1.7224   -4.2598 H         1 <0>         0.1248
     29 H7         -1.5856    0.1844   -2.7372 H         1 <0>         0.1253
     30 H8         -1.1423    0.9362    0.0851 H         1 <0>         0.1736
     31 H9         -1.6651    1.8899    1.3890 H         1 <0>         0.0707
     32 H10        -0.3203    2.8957    1.9791 H         1 <0>         0.0806
     33 H11        -0.0094    1.5927    0.8070 H         1 <0>         0.0848
     34 H12        -0.4598    2.4439    4.2418 H         1 <0>         0.0845
     35 H13        -0.4086    0.7745    4.8573 H         1 <0>         0.0906
     36 H14         1.9289    0.5522    4.0600 H         1 <0>         0.0752
     37 H15         1.8777    2.2216    3.4445 H         1 <0>         0.0758
     38 H16         1.8382    4.1091    4.9742 H         1 <0>         0.1214
     39 H17         2.4515    4.9506    7.2055 H         1 <0>         0.1225
     40 H18         2.8287    3.3709    9.0563 H         1 <0>         0.1218
     41 H19         2.5918    0.9496    8.6759 H         1 <0>         0.1225
     42 H20         1.9703    0.1086    6.4466 H         1 <0>         0.1223
@<TRIPOS>BOND
     1    1    2 1
     2    1   23 1
     3    1   24 1
     4    1   25 1
     5    2   10 1
     6    2    3 1
     7    3    8 ar
     8    3    4 ar
     9    4    5 ar
    10    4   26 1
    11    5    6 ar
    12    5   27 1
    13    6    7 ar
    14    6   28 1
    15    7    8 ar
    16    7   29 1
    17    8    9 1
    18    9   10 2
    19    9   30 1
    20   10   11 1
    21   11   12 2
    22   11   13 am
    23   13   14 1
    24   13   15 1
    25   14   31 1
    26   14   32 1
    27   14   33 1
    28   15   16 1
    29   15   34 1
    30   15   35 1
    31   16   17 1
    32   16   36 1
    33   16   37 1
    34   17   22 ar
    35   17   18 ar
    36   18   19 ar
    37   18   38 1
    38   19   20 ar
    39   19   39 1
    40   20   21 ar
    41   20   40 1
    42   21   22 ar
    43   21   41 1
    44   22   42 1
@<TRIPOS>MOLECULE
CHEMBL66979
   29    31     0     0     0
SMALL
USER_CHARGES

@<TRIPOS>ATOM
      1 C1         -0.0184    1.5028    0.0103 C.3       1 <0>        -0.1933
      2 C2          0.0021   -0.0041    0.0020 C.2       1 <0>         0.3713
      3 O1          1.0602   -0.5960   -0.0113 O.2       1 <0>        -0.4229
      4 C3         -1.2624   -0.7572    0.0100 C.ar      1 <0>        -0.0446
      5 C4         -2.4869   -0.0782    0.0195 C.ar      1 <0>        -0.1009
      6 C5         -3.6621   -0.7996    0.0272 C.ar      1 <0>        -0.0488
      7 C6         -3.6402   -2.1799    0.0316 C.ar      1 <0>        -0.1151
      8 C7         -2.4293   -2.8747    0.0257 C.ar      1 <0>         0.1971
      9 C8         -1.2487   -2.1500    0.0024 C.ar      1 <0>        -0.6734
     10 S1          0.2838   -3.0278   -0.0435 S.o2      1 <0>         2.5920
     11 O2          1.0330   -2.4990   -1.1290 O.2       1 <0>        -0.9016
     12 O3          0.7805   -3.0662    1.2873 O.2       1 <0>        -0.9133
     13 C9         -0.1592   -4.6820   -0.4790 C.ar      1 <0>        -0.7183
     14 C10         0.8038   -5.5744   -0.8942 C.ar      1 <0>         0.0093
     15 C11         0.4457   -6.8657   -1.2395 C.ar      1 <0>        -0.1468
     16 C12        -0.8808   -7.2503   -1.1669 C.ar      1 <0>        -0.0375
     17 C13        -1.8447   -6.3579   -0.7489 C.ar      1 <0>        -0.1412
     18 C14        -1.4937   -5.0560   -0.3929 C.ar      1 <0>         0.1944
     19 O4         -2.4529   -4.2188    0.0485 O.3       1 <0>        -0.2521
     20 H1          1.0042    1.8801    0.0026 H         1 <0>         0.0968
     21 H2         -0.5455    1.8639   -0.8728 H         1 <0>         0.1017
     22 H3         -0.5286    1.8543    0.9071 H         1 <0>         0.1022
     23 H4         -2.5107    1.0015    0.0211 H         1 <0>         0.1542
     24 H5         -4.6088   -0.2798    0.0302 H         1 <0>         0.1542
     25 H6         -4.5704   -2.7286    0.0401 H         1 <0>         0.1527
     26 H7          1.8375   -5.2667   -0.9507 H         1 <0>         0.1444
     27 H8          1.1979   -7.5693   -1.5642 H         1 <0>         0.1452
     28 H9         -1.1633   -8.2563   -1.4398 H         1 <0>         0.1469
     29 H10        -2.8778   -6.6686   -0.6973 H         1 <0>         0.1474
@<TRIPOS>BOND
     1    1    2 1
     2    1   20 1
     3    1   21 1
     4    1   22 1
     5    2    3 2
     6    2    4 1
     7    4    9 ar
     8    4    5 ar
     9    5    6 ar
    10    5   23 1
    11    6    7 ar
    12    6   24 1
    13    7    8 ar
    14    7   25 1
    15    8   19 1
    16    8    9 ar
    17    9   10 1
    18   10   11 2
    19   10   12 2
    20   10   13 1
    21   13   18 ar
    22   13   14 ar
    23   14   15 ar
    24   14   26 1
    25   15   16 ar
    26   15   27 1
    27   16   17 ar
    28   16   28 1
    29   17   18 ar
    30   17   29 1
    31   18   19 1
@<TRIPOS>MOLECULE
CHEMBL455989
   47    49     0     0     0
SMALL
USER_CHARGES

@<TRIPOS>ATOM
      1 C1         -0.0187    1.5258    0.0104 C.3       1 <0>        -0.1904
      2 C2          0.0021   -0.0041    0.0020 C.3       1 <0>         0.0268
      3 H1          0.5123   -0.3556   -0.8948 H         1 <0>         0.1410
      4 C3          0.7421   -0.5109    1.2415 C.3       1 <0>        -0.1079
      5 C4          0.0259   -0.0175    2.5003 C.3       1 <0>        -0.1318
      6 C5          0.7659   -0.5243    3.7399 C.3       1 <0>        -0.1193
      7 C6          2.2013    0.0053    3.7290 C.3       1 <0>        -0.1260
      8 C7          2.9174   -0.4882    2.4702 C.3       1 <0>        -0.1225
      9 C8          2.1775    0.0187    1.2307 C.3       1 <0>        -0.1123
     10 N1         -1.3761   -0.5125    0.0124 N.4       1 <0>        -0.3858
     11 C9         -1.3562   -1.9814    0.0044 C.3       1 <0>        -0.0573
     12 C10        -2.0866   -0.0259   -1.1777 C.3       1 <0>         0.0623
     13 C11        -3.5324   -0.4446   -1.1057 C.2       1 <0>        -0.0094
     14 C12        -4.0443   -1.5482   -1.6732 C.2       1 <0>        -0.1288
     15 C13        -5.4744   -1.5686   -1.3566 C.ar      1 <0>        -0.1236
     16 C14        -6.5224   -2.4410   -1.6570 C.ar      1 <0>        -0.0617
     17 C15        -7.7814   -2.1714   -1.1998 C.ar      1 <0>        -0.1364
     18 C16        -8.0273   -1.0368   -0.4386 C.ar      1 <0>        -0.0734
     19 C17        -7.0081   -0.1628   -0.1306 C.ar      1 <0>        -0.1358
     20 C18        -5.7183   -0.4176   -0.5857 C.ar      1 <0>         0.1180
     21 N2         -4.5169    0.2407   -0.4474 N.pl3     1 <0>        -0.5905
     22 H2         -4.3880    1.0681    0.0423 H         1 <0>         0.4170
     23 H3          1.0039    1.9031    0.0027 H         1 <0>         0.1111
     24 H4         -0.5459    1.8868   -0.8726 H         1 <0>         0.0815
     25 H5         -0.5289    1.8773    0.9072 H         1 <0>         0.0828
     26 H6          0.7568   -1.6008    1.2356 H         1 <0>         0.0975
     27 H7          0.0111    1.0724    2.5063 H         1 <0>         0.0810
     28 H8         -0.9967   -0.3948    2.5081 H         1 <0>         0.0532
     29 H9          0.2557   -0.1728    4.6367 H         1 <0>         0.0725
     30 H10         0.7807   -1.6142    3.7339 H         1 <0>         0.0673
     31 H11         2.1865    1.0951    3.7350 H         1 <0>         0.0660
     32 H12         2.7285   -0.3558    4.6121 H         1 <0>         0.0715
     33 H13         3.9400   -0.1109    2.4625 H         1 <0>         0.0744
     34 H14         2.9322   -1.5780    2.4642 H         1 <0>         0.0668
     35 H15         2.6876   -0.3328    0.3339 H         1 <0>         0.0743
     36 H16         2.1627    1.1086    1.2367 H         1 <0>         0.0762
     37 H17        -2.3788   -2.3587    0.0121 H         1 <0>         0.1275
     38 H18        -0.8460   -2.3329   -0.8924 H         1 <0>         0.1259
     39 H19        -0.8290   -2.3425    0.8874 H         1 <0>         0.1253
     40 H20        -2.0248    1.0616   -1.2183 H         1 <0>         0.1399
     41 H21        -1.6297   -0.4495   -2.0721 H         1 <0>         0.1526
     42 H22        -3.5041   -2.2819   -2.2532 H         1 <0>         0.1572
     43 H23        -6.3386   -3.3254   -2.2490 H         1 <0>         0.1300
     44 H24        -8.5918   -2.8463   -1.4327 H         1 <0>         0.1327
     45 H25        -9.0279   -0.8370   -0.0847 H         1 <0>         0.1353
     46 H26        -7.2096    0.7173    0.4619 H         1 <0>         0.1269
     47 H27        -1.8484   -0.1871    0.8426 H         1 <0>         0.4184
@<TRIPOS>BOND
     1    1    2 1
     2    1   23 1
     3    1   24 1
     4    1   25 1
     5    2    3 1
     6    2    4 1
     7    2   10 1
     8    4    9 1
     9    4    5 1
    10    4   26 1
    11    5    6 1
    12    5   27 1
    13    5   28 1
    14    6    7 1
    15    6   29 1
    16    6   30 1
    17    7    8 1
    18    7   31 1
    19    7   32 1
    20    8    9 1
    21    8   33 1
    22    8   34 1
    23    9   35 1
    24    9   36 1
    25   10   11 1
    26   10   12 1
    27   10   47 1
    28   11   37 1
    29   11   38 1
    30   11   39 1
    31   12   13 1
    32   12   40 1
    33   12   41 1
    34   13   21 1
    35   13   14 2
    36   14   15 1
    37   14   42 1
    38   15   20 ar
    39   15   16 ar
    40   16   17 ar
    41   16   43 1
    42   17   18 ar
    43   17   44 1
    44   18   19 ar
    45   18   45 1
    46   19   20 ar
    47   19   46 1
    48   20   21 1
    49   21   22 1
@<TRIPOS>MOLECULE
CHEMBL363555
   37    38     0     0     0
SMALL
USER_CHARGES

@<TRIPOS>ATOM
      1 C1          0.4698    1.8021   -2.0791 C.3       1 <0>        -0.1559
      2 C2          0.6956    0.3293   -2.4268 C.3       1 <0>         0.0499
      3 O1          0.4569   -0.4751   -1.2701 O.3       1 <0>        -0.3049
      4 C3          0.6147   -1.8164   -1.4089 C.ar      1 <0>         0.1778
      5 C4          0.9981   -2.3452   -2.6360 C.ar      1 <0>        -0.2132
      6 C5          1.1596   -3.7045   -2.7824 C.ar      1 <0>        -0.0326
      7 C6          0.9370   -4.5548   -1.6923 C.ar      1 <0>        -0.1594
      8 C7          0.5509   -4.0166   -0.4585 C.ar      1 <0>        -0.0246
      9 C8          0.3978   -2.6554   -0.3219 C.ar      1 <0>        -0.1575
     10 C9          1.1072   -6.0056   -1.8426 C.2       1 <0>         0.1213
     11 C10         1.6446   -6.5114   -2.9816 C.2       1 <0>        -0.2586
     12 C11         1.7650   -7.9152   -3.4228 C.2       1 <0>         0.5643
     13 O2          1.3546   -8.8368   -2.7420 O.2       1 <0>        -0.4728
     14 N1          2.3411   -8.1206   -4.5953 N.am      1 <0>        -0.5768
     15 C12         2.7946   -7.0965   -5.3465 C.2       1 <0>         0.5156
     16 O3          3.3390   -7.1401   -6.4333 O.2       1 <0>        -0.4182
     17 S1          2.3940   -5.6606   -4.3636 S.3       1 <0>        -0.0041
     18 C13         2.4904   -9.4918   -5.0891 C.3       1 <0>         0.0641
     19 C14         1.2570   -9.8758   -5.9089 C.3       1 <0>        -0.0250
     20 N2          1.4068  -11.2507   -6.4041 N.4       1 <0>        -0.6291
     21 H1         -0.5580    1.9430   -1.7443 H         1 <0>         0.0696
     22 H2          1.1545    2.0969   -1.2839 H         1 <0>         0.0698
     23 H3          0.6518    2.4157   -2.9614 H         1 <0>         0.0839
     24 H4          0.0108    0.0346   -3.2219 H         1 <0>         0.0680
     25 H5          1.7233    0.1885   -2.7615 H         1 <0>         0.0684
     26 H6          1.1692   -1.6885   -3.4762 H         1 <0>         0.1407
     27 H7          1.4572   -4.1143   -3.7363 H         1 <0>         0.1321
     28 H8          0.3779   -4.6679    0.3855 H         1 <0>         0.1458
     29 H9          0.1044   -2.2388    0.6304 H         1 <0>         0.1457
     30 H10         0.8048   -6.6701   -1.0467 H         1 <0>         0.1666
     31 H11         3.3789   -9.5570   -5.7172 H         1 <0>         0.1202
     32 H12         2.5918  -10.1732   -4.2444 H         1 <0>         0.1238
     33 H13         0.3685   -9.8106   -5.2808 H         1 <0>         0.1417
     34 H14         1.1556   -9.1944   -6.7536 H         1 <0>         0.1400
     35 H15         1.5006  -11.8814   -5.6222 H         1 <0>         0.4394
     36 H16         0.5933  -11.5039   -6.9448 H         1 <0>         0.4450
     37 H17         2.2292  -11.3110   -6.9855 H         1 <0>         0.4389
@<TRIPOS>BOND
     1    1    2 1
     2    1   21 1
     3    1   22 1
     4    1   23 1
     5    2    3 1
     6    2   24 1
     7    2   25 1
     8    3    4 1
     9    4    9 ar
    10    4    5 ar
    11    5    6 ar
    12    5   26 1
    13    6    7 ar
    14    6   27 1
    15    7    8 ar
    16    7   10 1
    17    8    9 ar
    18    8   28 1
    19    9   29 1
    20   10   11 2
    21   10   30 1
    22   11   17 1
    23   11   12 1
    24   12   13 2
    25   12   14 am
    26   14   15 am
    27   14   18 1
    28   15   16 2
    29   15   17 1
    30   18   19 1
    31   18   31 1
    32   18   32 1
    33   19   20 1
    34   19   33 1
    35   19   34 1
    36   20   35 1
    37   20   36 1
    38   20   37 1
@<TRIPOS>MOLECULE
CHEMBL389728
   29    31     0     0     0
SMALL
USER_CHARGES

@<TRIPOS>ATOM
      1 C1         -0.0162    1.3409    0.0094 C.2       1 <0>        -0.2084
      2 C2          1.3313    1.7689   -0.0012 C.2       1 <0>        -0.1643
      3 C3          2.0923    0.6599   -0.0144 C.2       1 <0>        -0.0236
      4 O1          1.2819   -0.4111   -0.0124 O.3       1 <0>        -0.1720
      5 C4          0.0021   -0.0041    0.0020 C.2       1 <0>        -0.0307
      6 C5          3.5989    0.6249   -0.0294 C.3       1 <0>         0.2145
      7 C6          4.1189    0.2619   -1.4344 C.3       1 <0>        -0.1338
      8 C7          4.8757   -1.0295   -1.2208 C.2       1 <0>         0.2132
      9 N1          4.8195   -1.3603    0.0259 N.2       1 <0>        -0.2618
     10 N2          4.0997   -0.4685    0.8184 N.pl3     1 <0>        -0.4329
     11 C8          3.8952   -0.5881    2.1452 C.2       1 <0>         0.6057
     12 S1          2.9842    0.5961    2.9811 S.2       1 <0>        -0.5926
     13 N3          4.4080   -1.6399    2.8139 N.pl3     1 <0>        -0.7876
     14 C9          5.5665   -1.7893   -2.2682 C.2       1 <0>        -0.1359
     15 C10         6.2735   -2.9744   -2.1641 C.2       1 <0>        -0.0914
     16 C11         6.8392   -3.5002   -3.3027 C.2       1 <0>        -0.1677
     17 C12         6.6879   -2.8460   -4.4835 C.2       1 <0>        -0.1495
     18 S2          5.7080   -1.4306   -4.0115 S.3       1 <0>         0.1110
     19 H1         -0.8920    1.9726    0.0252 H         1 <0>         0.1500
     20 H2          1.6822    2.7903    0.0004 H         1 <0>         0.1502
     21 H3         -0.8653   -0.6475    0.0072 H         1 <0>         0.2016
     22 H4          4.0067    1.5814    0.2977 H         1 <0>         0.1393
     23 H5          3.2871    0.1084   -2.1219 H         1 <0>         0.1205
     24 H6          4.7861    1.0388   -1.8075 H         1 <0>         0.1246
     25 H7          4.9241   -2.3109    2.3403 H         1 <0>         0.4066
     26 H8          4.2608   -1.7260    3.7688 H         1 <0>         0.4336
     27 H9          6.3788   -3.4741   -1.2125 H         1 <0>         0.1425
     28 H10         7.3980   -4.4233   -3.2581 H         1 <0>         0.1437
     29 H11         7.0619   -3.1157   -5.4601 H         1 <0>         0.1950
@<TRIPOS>BOND
     1    1    5 2
     2    1    2 1
     3    1   19 1
     4    2    3 2
     5    2   20 1
     6    3    4 1
     7    3    6 1
     8    4    5 1
     9    5   21 1
    10    6   10 1
    11    6    7 1
    12    6   22 1
    13    7    8 1
    14    7   23 1
    15    7   24 1
    16    8    9 2
    17    8   14 1
    18    9   10 1
    19   10   11 1
    20   11   12 2
    21   11   13 1
    22   13   25 1
    23   13   26 1
    24   14   18 1
    25   14   15 2
    26   15   16 1
    27   15   27 1
    28   16   17 2
    29   16   28 1
    30   17   18 1
    31   17   29 1
@<TRIPOS>MOLECULE
CHEMBL389728__1
   29    31     0     0     0
SMALL
USER_CHARGES

@<TRIPOS>ATOM
      1 C1         -0.0162    1.3409    0.0094 C.2       1 <0>        -0.2083
      2 C2          1.3313    1.7689   -0.0012 C.2       1 <0>        -0.1643
      3 C3          2.0923    0.6599   -0.0144 C.2       1 <0>        -0.0236
      4 O1          1.2819   -0.4111   -0.0124 O.3       1 <0>        -0.1720
      5 C4          0.0021   -0.0041    0.0020 C.2       1 <0>        -0.0307
      6 C5          3.5989    0.6249   -0.0294 C.3       1 <0>         0.2145
      7 C6          4.1464    0.2475    1.3612 C.3       1 <0>        -0.1338
      8 C7          4.8987   -1.0416    1.1195 C.2       1 <0>         0.2132
      9 N1          4.8180   -1.3595   -0.1292 N.2       1 <0>        -0.2618
     10 N2          4.0828   -0.4596   -0.8981 N.pl3     1 <0>        -0.4329
     11 C8          3.8522   -0.5655   -2.2218 C.2       1 <0>         0.6056
     12 S1          2.9250    0.6271   -3.0273 S.2       1 <0>        -0.5925
     13 N3          4.3516   -1.6104   -2.9113 N.pl3     1 <0>        -0.7876
     14 C9          5.6107   -1.8116    2.1450 C.2       1 <0>        -0.1360
     15 C10         6.3249   -2.9896    2.0127 C.2       1 <0>        -0.0914
     16 C11         6.9121   -3.5275    3.1345 C.2       1 <0>        -0.1677
     17 C12         6.7742   -2.8918    4.3270 C.2       1 <0>        -0.1495
     18 S2          5.7886   -1.4697    3.8883 S.3       1 <0>         0.1111
     19 H1         -0.8920    1.9726    0.0252 H         1 <0>         0.1500
     20 H2          1.6822    2.7903    0.0004 H         1 <0>         0.1502
     21 H3         -0.8653   -0.6475    0.0072 H         1 <0>         0.2016
     22 H4          4.0003    1.5847   -0.3545 H         1 <0>         0.1392
     23 H5          4.8210    1.0206    1.7292 H         1 <0>         0.1246
     24 H6          3.3284    0.0868    2.0634 H         1 <0>         0.1205
     25 H7          4.8769   -2.2861   -2.4549 H         1 <0>         0.4066
     26 H8          4.1856   -1.6866   -3.8640 H         1 <0>         0.4336
     27 H9          6.4187   -3.4749    1.0524 H         1 <0>         0.1425
     28 H10         7.4765   -4.4459    3.0679 H         1 <0>         0.1437
     29 H11         7.1649   -3.1731    5.2938 H         1 <0>         0.1951
@<TRIPOS>BOND
     1    1    5 2
     2    1    2 1
     3    1   19 1
     4    2    3 2
     5    2   20 1
     6    3    4 1
     7    3    6 1
     8    4    5 1
     9    5   21 1
    10    6   10 1
    11    6    7 1
    12    6   22 1
    13    7    8 1
    14    7   23 1
    15    7   24 1
    16    8    9 2
    17    8   14 1
    18    9   10 1
    19   10   11 1
    20   11   12 2
    21   11   13 1
    22   13   25 1
    23   13   26 1
    24   14   18 1
    25   14   15 2
    26   15   16 1
    27   15   27 1
    28   16   17 2
    29   16   28 1
    30   17   18 1
    31   17   29 1
@<TRIPOS>MOLECULE
CHEMBL224191
   29    31     0     0     0
SMALL
USER_CHARGES

@<TRIPOS>ATOM
      1 C1         -0.0163    1.3513    0.0095 C.2       1 <0>        -0.1536
      2 C2          1.1833    2.0380    0.0017 C.2       1 <0>        -0.1152
      3 C3          2.3426    1.3358   -0.0131 C.2       1 <0>        -0.1544
      4 S1          1.7535   -0.3495   -0.0166 S.3       1 <0>         0.0425
      5 C4          0.0021   -0.0041    0.0020 C.2       1 <0>        -0.1639
      6 C5          3.7608    1.8454   -0.0244 C.3       1 <0>         0.2169
      7 C6          4.3784    1.6992   -1.4291 C.3       1 <0>        -0.1326
      8 C7          5.5490    0.7659   -1.2175 C.2       1 <0>         0.2127
      9 N1          5.6140    0.4323    0.0280 N.2       1 <0>        -0.2622
     10 N2          4.6205    1.0023    0.8214 N.pl3     1 <0>        -0.4338
     11 C8          4.4710    0.8121    2.1472 C.2       1 <0>         0.6046
     12 S2          3.1937    1.5859    2.9844 S.2       1 <0>        -0.5909
     13 N3          5.3270    0.0127    2.8141 N.pl3     1 <0>        -0.7882
     14 C9          6.4683    0.3095   -2.2655 C.2       1 <0>        -0.1358
     15 C10         7.5543   -0.5422   -2.1632 C.2       1 <0>        -0.0914
     16 C11         8.2728   -0.8248   -3.3019 C.2       1 <0>        -0.1677
     17 C12         7.8978   -0.2644   -4.4811 C.2       1 <0>        -0.1497
     18 S3          6.4736    0.7017   -4.0073 S.3       1 <0>         0.1111
     19 H1         -0.9542    1.8866    0.0258 H         1 <0>         0.1360
     20 H2          1.1967    3.1179    0.0070 H         1 <0>         0.1351
     21 H3         -0.8275   -0.6955    0.0065 H         1 <0>         0.1857
     22 H4          3.7966    2.8833    0.3067 H         1 <0>         0.1309
     23 H5          3.6586    1.2592   -2.1193 H         1 <0>         0.1202
     24 H6          4.7219    2.6656   -1.7981 H         1 <0>         0.1231
     25 H7          6.0507   -0.4257    2.3398 H         1 <0>         0.4064
     26 H8          5.2194   -0.1242    3.7683 H         1 <0>         0.4334
     27 H9          7.8312   -0.9740   -1.2128 H         1 <0>         0.1425
     28 H10         9.1264   -1.4851   -3.2586 H         1 <0>         0.1435
     29 H11         8.3451   -0.3777   -5.4575 H         1 <0>         0.1948
@<TRIPOS>BOND
     1    1    5 2
     2    1    2 1
     3    1   19 1
     4    2    3 2
     5    2   20 1
     6    3    4 1
     7    3    6 1
     8    4    5 1
     9    5   21 1
    10    6   10 1
    11    6    7 1
    12    6   22 1
    13    7    8 1
    14    7   23 1
    15    7   24 1
    16    8    9 2
    17    8   14 1
    18    9   10 1
    19   10   11 1
    20   11   12 2
    21   11   13 1
    22   13   25 1
    23   13   26 1
    24   14   18 1
    25   14   15 2
    26   15   16 1
    27   15   27 1
    28   16   17 2
    29   16   28 1
    30   17   18 1
    31   17   29 1
@<TRIPOS>MOLECULE
CHEMBL224191__1
   29    31     0     0     0
SMALL
USER_CHARGES

@<TRIPOS>ATOM
      1 C1         -0.0163    1.3513    0.0095 C.2       1 <0>        -0.1535
      2 C2          1.1833    2.0380    0.0017 C.2       1 <0>        -0.1153
      3 C3          2.3426    1.3358   -0.0131 C.2       1 <0>        -0.1545
      4 S1          1.7535   -0.3495   -0.0166 S.3       1 <0>         0.0426
      5 C4          0.0021   -0.0041    0.0020 C.2       1 <0>        -0.1639
      6 C5          3.7608    1.8454   -0.0244 C.3       1 <0>         0.2169
      7 C6          4.4056    1.6850    1.3665 C.3       1 <0>        -0.1326
      8 C7          5.5718    0.7540    1.1227 C.2       1 <0>         0.2128
      9 N1          5.6125    0.4331   -0.1271 N.2       1 <0>        -0.2622
     10 N2          4.6038    1.0110   -0.8952 N.pl3     1 <0>        -0.4338
     11 C8          4.4285    0.8342   -2.2197 C.2       1 <0>         0.6046
     12 S2          3.1352    1.6163   -3.0240 S.2       1 <0>        -0.5909
     13 N3          5.2713    0.0417   -2.9112 N.pl3     1 <0>        -0.7882
     14 C9          6.5118    0.2879    2.1478 C.2       1 <0>        -0.1359
     15 C10         7.6023   -0.5536    2.0137 C.2       1 <0>        -0.0914
     16 C11         8.3423   -0.8484    3.1354 C.2       1 <0>        -0.1677
     17 C12         7.9832   -0.3094    4.3295 C.2       1 <0>        -0.1498
     18 S3          6.5525    0.6643    3.8926 S.3       1 <0>         0.1112
     19 H1         -0.9542    1.8866    0.0258 H         1 <0>         0.1360
     20 H2          1.1967    3.1179    0.0070 H         1 <0>         0.1351
     21 H3         -0.8275   -0.6955    0.0065 H         1 <0>         0.1857
     22 H4          3.7903    2.8866   -0.3455 H         1 <0>         0.1309
     23 H5          4.7563    2.6477    1.7386 H         1 <0>         0.1231
     24 H6          3.6993    1.2380    2.0661 H         1 <0>         0.1203
     25 H7          6.0040   -0.4014   -2.4555 H         1 <0>         0.4064
     26 H8          5.1451   -0.0856   -3.8645 H         1 <0>         0.4334
     27 H9          7.8657   -0.9690    1.0522 H         1 <0>         0.1424
     28 H10         9.1995   -1.5018    3.0674 H         1 <0>         0.1435
     29 H11         8.4477   -0.4349    5.2964 H         1 <0>         0.1949
@<TRIPOS>BOND
     1    1    5 2
     2    1    2 1
     3    1   19 1
     4    2    3 2
     5    2   20 1
     6    3    4 1
     7    3    6 1
     8    4    5 1
     9    5   21 1
    10    6   10 1
    11    6    7 1
    12    6   22 1
    13    7    8 1
    14    7   23 1
    15    7   24 1
    16    8    9 2
    17    8   14 1
    18    9   10 1
    19   10   11 1
    20   11   12 2
    21   11   13 1
    22   13   25 1
    23   13   26 1
    24   14   18 1
    25   14   15 2
    26   15   16 1
    27   15   27 1
    28   16   17 2
    29   16   28 1
    30   17   18 1
    31   17   29 1
@<TRIPOS>MOLECULE
CHEMBL18832
   35    37     0     0     0
SMALL
USER_CHARGES

@<TRIPOS>ATOM
      1 C1         -0.0184    1.5028    0.0103 C.3       1 <0>        -0.1300
      2 C2          0.0021   -0.0041    0.0020 C.2       1 <0>         0.0271
      3 C3          0.0061   -0.6954   -1.1674 C.2       1 <0>        -0.2277
      4 C4          0.0259   -2.1051   -1.1488 C.2       1 <0>         0.5161
      5 O1          0.0297   -2.7124   -2.2045 O.2       1 <0>        -0.4565
      6 O2          0.0411   -2.7950    0.0025 O.3       1 <0>        -0.2686
      7 C5          0.0380   -2.1693    1.1991 C.ar      1 <0>         0.1873
      8 C6          0.0243   -0.7629    1.2543 C.ar      1 <0>        -0.1804
      9 C7          0.0261   -0.1105    2.4922 C.ar      1 <0>        -0.0133
     10 C8          0.0465   -0.8421    3.6444 C.ar      1 <0>        -0.2248
     11 C9          0.0655   -2.2344    3.5961 C.ar      1 <0>         0.1860
     12 C10         0.0533   -2.8969    2.3791 C.ar      1 <0>        -0.1666
     13 O3          0.0862   -2.9478    4.7507 O.3       1 <0>        -0.3005
     14 C11         0.0871   -2.2057    5.9719 C.3       1 <0>         0.1622
     15 C12         0.1112   -3.1589    7.1389 C.2       1 <0>         0.1473
     16 N1          1.1734   -3.6274    7.7299 N.2       1 <0>        -0.2484
     17 N2          0.8191   -4.4123    8.6859 N.2       1 <0>        -0.2878
     18 C13        -0.4813   -4.4712    8.7374 C.2       1 <0>         0.1828
     19 O4         -0.9591   -3.6769    7.7647 O.3       1 <0>        -0.2171
     20 C14        -1.2995   -5.2778    9.7126 C.3       1 <0>        -0.0634
     21 C15        -0.0109    0.0426   -2.4812 C.3       1 <0>        -0.0978
     22 H1          1.0042    1.8801    0.0026 H         1 <0>         0.0920
     23 H2         -0.5455    1.8639   -0.8728 H         1 <0>         0.0880
     24 H3         -0.5286    1.8543    0.9071 H         1 <0>         0.0796
     25 H4          0.0118    0.9686    2.5359 H         1 <0>         0.1470
     26 H5          0.0483   -0.3384    4.5997 H         1 <0>         0.1435
     27 H6          0.0678   -3.9764    2.3498 H         1 <0>         0.1545
     28 H7          0.9686   -1.5656    6.0074 H         1 <0>         0.1203
     29 H8         -0.8112   -1.5904    6.0238 H         1 <0>         0.1050
     30 H9         -1.5074   -4.6760   10.5973 H         1 <0>         0.1045
     31 H10        -2.2387   -5.5709    9.2435 H         1 <0>         0.0973
     32 H11        -0.7441   -6.1698   10.0022 H         1 <0>         0.1120
     33 H12         1.0125    0.2352   -2.8031 H         1 <0>         0.0764
     34 H13        -0.5199   -0.5627   -3.2313 H         1 <0>         0.0776
     35 H14        -0.5377    0.9891   -2.3595 H         1 <0>         0.0766
@<TRIPOS>BOND
     1    1    2 1
     2    1   22 1
     3    1   23 1
     4    1   24 1
     5    2    8 1
     6    2    3 2
     7    3    4 1
     8    3   21 1
     9    4    5 2
    10    4    6 1
    11    6    7 1
    12    7   12 ar
    13    7    8 ar
    14    8    9 ar
    15    9   10 ar
    16    9   25 1
    17   10   11 ar
    18   10   26 1
    19   11   12 ar
    20   11   13 1
    21   12   27 1
    22   13   14 1
    23   14   15 1
    24   14   28 1
    25   14   29 1
    26   15   19 1
    27   15   16 2
    28   16   17 1
    29   17   18 2
    30   18   19 1
    31   18   20 1
    32   20   30 1
    33   20   31 1
    34   20   32 1
    35   21   33 1
    36   21   34 1
    37   21   35 1
@<TRIPOS>MOLECULE
CHEMBL457235
   48    50     0     0     0
SMALL
USER_CHARGES

@<TRIPOS>ATOM
      1 C1         -1.2530    1.0813   -0.5310 C.3       1 <0>        -0.1672
      2 C2         -0.2492    0.0396   -0.0328 C.3       1 <0>         0.1527
      3 H1          0.4280    0.5020    0.6854 H         1 <0>         0.0824
      4 C3         -0.9999   -1.1104    0.6415 C.3       1 <0>        -0.1001
      5 C4         -2.0355   -1.6819   -0.3290 C.3       1 <0>        -0.1126
      6 C5         -2.7862   -2.8320    0.3453 C.3       1 <0>        -0.1197
      7 C6         -3.4937   -2.3137    1.5990 C.3       1 <0>        -0.1192
      8 C7         -2.4581   -1.7422    2.5695 C.3       1 <0>        -0.1191
      9 C8         -1.7073   -0.5921    1.8952 C.3       1 <0>        -0.1113
     10 N1          0.5207   -0.4780   -1.1666 N.am      1 <0>        -0.5943
     11 C9          0.1673   -0.0844   -2.5328 C.3       1 <0>         0.0496
     12 C10         1.5541   -1.3164   -0.9529 C.2       1 <0>         0.5835
     13 O1          1.9131   -1.5620    0.1832 O.2       1 <0>        -0.5365
     14 C11         2.2478   -1.9341   -2.0930 C.2       1 <0>         0.0224
     15 C12         2.0150   -1.6544   -3.4020 C.2       1 <0>        -0.1662
     16 C13         2.8862   -2.4585   -4.1761 C.ar      1 <0>        -0.1194
     17 C14         3.0946   -2.6003   -5.5543 C.ar      1 <0>        -0.0632
     18 C15         4.0308   -3.4810   -6.0120 C.ar      1 <0>        -0.1481
     19 C16         4.7814   -4.2411   -5.1236 C.ar      1 <0>        -0.0886
     20 C17         4.5949   -4.1201   -3.7650 C.ar      1 <0>        -0.1299
     21 C18         3.6462   -3.2276   -3.2734 C.ar      1 <0>         0.1073
     22 N2          3.2440   -2.8870   -2.0036 N.pl3     1 <0>        -0.4505
     23 C19         3.7810   -3.4455   -0.7602 C.3       1 <0>         0.0695
     24 H2         -0.7182    1.9006   -1.0114 H         1 <0>         0.0645
     25 H3         -1.9302    0.6189   -1.2492 H         1 <0>         0.0712
     26 H4         -1.8259    1.4664    0.3126 H         1 <0>         0.0780
     27 H5         -0.2930   -1.8919    0.9201 H         1 <0>         0.0825
     28 H6         -2.7424   -0.9004   -0.6076 H         1 <0>         0.0652
     29 H7         -1.5315   -2.0512   -1.2222 H         1 <0>         0.0584
     30 H8         -3.5240   -3.2391   -0.3461 H         1 <0>         0.0604
     31 H9         -2.0793   -3.6135    0.6239 H         1 <0>         0.0587
     32 H10        -4.2006   -1.5322    1.3204 H         1 <0>         0.0612
     33 H11        -4.0285   -3.1330    2.0794 H         1 <0>         0.0600
     34 H12        -2.9620   -1.3729    3.4626 H         1 <0>         0.0623
     35 H13        -1.7511   -2.5236    2.8481 H         1 <0>         0.0609
     36 H14        -0.9696   -0.1850    2.5866 H         1 <0>         0.0631
     37 H15        -2.4143    0.1894    1.6166 H         1 <0>         0.0652
     38 H16        -0.6501    0.6361   -2.5033 H         1 <0>         0.0905
     39 H17         1.0332    0.3681   -3.0160 H         1 <0>         0.0756
     40 H18        -0.1441   -0.9645   -3.0954 H         1 <0>         0.0734
     41 H19         1.2948   -0.9459   -3.7836 H         1 <0>         0.1747
     42 H20         2.5154   -2.0143   -6.2525 H         1 <0>         0.1247
     43 H21         4.1896   -3.5886   -7.0749 H         1 <0>         0.1244
     44 H22         5.5182   -4.9339   -5.5026 H         1 <0>         0.1273
     45 H23         5.1829   -4.7159   -3.0825 H         1 <0>         0.1205
     46 H24         3.2449   -4.3615   -0.5120 H         1 <0>         0.0701
     47 H25         4.8401   -3.6680   -0.8895 H         1 <0>         0.0786
     48 H26         3.6574   -2.7224    0.0460 H         1 <0>         0.1075
@<TRIPOS>BOND
     1    1    2 1
     2    1   24 1
     3    1   25 1
     4    1   26 1
     5    2    3 1
     6    2    4 1
     7    2   10 1
     8    4    9 1
     9    4    5 1
    10    4   27 1
    11    5    6 1
    12    5   28 1
    13    5   29 1
    14    6    7 1
    15    6   30 1
    16    6   31 1
    17    7    8 1
    18    7   32 1
    19    7   33 1
    20    8    9 1
    21    8   34 1
    22    8   35 1
    23    9   36 1
    24    9   37 1
    25   10   11 1
    26   10   12 am
    27   11   38 1
    28   11   39 1
    29   11   40 1
    30   12   13 2
    31   12   14 1
    32   14   22 1
    33   14   15 2
    34   15   16 1
    35   15   41 1
    36   16   21 ar
    37   16   17 ar
    38   17   18 ar
    39   17   42 1
    40   18   19 ar
    41   18   43 1
    42   19   20 ar
    43   19   44 1
    44   20   21 ar
    45   20   45 1
    46   21   22 1
    47   22   23 1
    48   23   46 1
    49   23   47 1
    50   23   48 1
@<TRIPOS>MOLECULE
CHEMBL274029
   27    28     0     0     0
SMALL
USER_CHARGES

@<TRIPOS>ATOM
      1 C1         -0.0184    1.5028    0.0103 C.3       1 <0>        -0.1298
      2 C2          0.0021   -0.0041    0.0020 C.2       1 <0>         0.0293
      3 C3          0.0061   -0.6954   -1.1674 C.2       1 <0>        -0.2316
      4 C4          0.0259   -2.1051   -1.1488 C.2       1 <0>         0.5161
      5 O1          0.0297   -2.7124   -2.2045 O.2       1 <0>        -0.4590
      6 O2          0.0411   -2.7950    0.0025 O.3       1 <0>        -0.2692
      7 C5          0.0380   -2.1693    1.1991 C.ar      1 <0>         0.1859
      8 C6          0.0243   -0.7629    1.2543 C.ar      1 <0>        -0.1863
      9 C7          0.0261   -0.1105    2.4922 C.ar      1 <0>        -0.0158
     10 C8          0.0465   -0.8421    3.6444 C.ar      1 <0>        -0.2255
     11 C9          0.0655   -2.2344    3.5961 C.ar      1 <0>         0.1847
     12 C10         0.0533   -2.8969    2.3791 C.ar      1 <0>        -0.1747
     13 O3          0.0862   -2.9478    4.7507 O.3       1 <0>        -0.3063
     14 C11         0.0871   -2.2057    5.9719 C.3       1 <0>         0.0232
     15 C12        -0.0109    0.0426   -2.4812 C.3       1 <0>        -0.0968
     16 H1          1.0042    1.8801    0.0026 H         1 <0>         0.0913
     17 H2         -0.5455    1.8639   -0.8728 H         1 <0>         0.0876
     18 H3         -0.5286    1.8543    0.9071 H         1 <0>         0.0791
     19 H4          0.0118    0.9686    2.5359 H         1 <0>         0.1439
     20 H5          0.0483   -0.3384    4.5997 H         1 <0>         0.1420
     21 H6          0.0678   -3.9764    2.3498 H         1 <0>         0.1529
     22 H7          0.9686   -1.5656    6.0074 H         1 <0>         0.0616
     23 H8         -0.8112   -1.5904    6.0238 H         1 <0>         0.0616
     24 H9          0.1045   -2.8951    6.8160 H         1 <0>         0.1072
     25 H10         1.0125    0.2352   -2.8031 H         1 <0>         0.0754
     26 H11        -0.5199   -0.5627   -3.2313 H         1 <0>         0.0771
     27 H12        -0.5377    0.9891   -2.3595 H         1 <0>         0.0759
@<TRIPOS>BOND
     1    1    2 1
     2    1   16 1
     3    1   17 1
     4    1   18 1
     5    2    8 1
     6    2    3 2
     7    3    4 1
     8    3   15 1
     9    4    5 2
    10    4    6 1
    11    6    7 1
    12    7   12 ar
    13    7    8 ar
    14    8    9 ar
    15    9   10 ar
    16    9   19 1
    17   10   11 ar
    18   10   20 1
    19   11   12 ar
    20   11   13 1
    21   12   21 1
    22   13   14 1
    23   14   22 1
    24   14   23 1
    25   14   24 1
    26   15   25 1
    27   15   26 1
    28   15   27 1
@<TRIPOS>MOLECULE
CHEMBL502021
   48    51     0     0     0
SMALL
USER_CHARGES

@<TRIPOS>ATOM
      1 C1         -0.0167    1.3781    0.0096 C.ar      1 <0>        -0.1106
      2 C2          1.1709    2.0855    0.0021 C.ar      1 <0>        -0.1213
      3 C3          2.3773    1.4107   -0.0130 C.ar      1 <0>        -0.0980
      4 C4          2.3960    0.0285   -0.0201 C.ar      1 <0>        -0.1122
      5 C5          1.2084   -0.6789   -0.0117 C.ar      1 <0>        -0.1004
      6 C6          0.0021   -0.0041    0.0020 C.ar      1 <0>        -0.1218
      7 C7          3.7112   -0.7071   -0.0376 C.3       1 <0>         0.1615
      8 N1          4.1518   -0.9524    1.3379 N.am      1 <0>        -0.7173
      9 C8          5.3108   -1.6005    1.5688 C.2       1 <0>         0.5816
     10 O1          5.9909   -1.9817    0.6352 O.2       1 <0>        -0.5383
     11 C9          5.7534   -1.8469    2.9506 C.2       1 <0>        -0.2927
     12 C10         6.9468   -2.5075    3.2201 C.2       1 <0>         0.0934
     13 C11         7.2910   -2.7365    4.5740 C.ar      1 <0>        -0.2101
     14 C12         8.5673   -3.2150    4.9122 C.ar      1 <0>         0.0058
     15 C13         8.9008   -3.3915    6.2217 C.ar      1 <0>        -0.2311
     16 C14         7.9807   -3.1085    7.2311 C.ar      1 <0>         0.2054
     17 C15         6.7093   -2.6545    6.9166 C.ar      1 <0>        -0.1786
     18 C16         6.3506   -2.4754    5.5906 C.ar      1 <0>         0.1974
     19 O2          5.0971   -2.0732    5.2692 O.3       1 <0>        -0.2687
     20 C17         4.9525   -1.3979    4.1027 C.2       1 <0>         0.5282
     21 O3          4.1863   -0.4572    4.0079 O.2       1 <0>        -0.4368
     22 O4          8.3325   -3.2792    8.5302 O.3       1 <0>        -0.2946
     23 C18         9.6570   -3.7500    8.7871 C.3       1 <0>         0.0987
     24 C19         9.8652   -3.8777   10.2742 C.ar      1 <0>        -0.1047
     25 C20        10.3489   -2.8045   10.9990 C.ar      1 <0>        -0.0932
     26 C21        10.5398   -2.9216   12.3631 C.ar      1 <0>        -0.1228
     27 C22        10.2467   -4.1116   13.0024 C.ar      1 <0>        -0.1051
     28 C23         9.7622   -5.1845   12.2778 C.ar      1 <0>        -0.1228
     29 C24         9.5672   -5.0660   10.9144 C.ar      1 <0>        -0.0932
     30 H1         -0.9591    1.9053    0.0259 H         1 <0>         0.1241
     31 H2          1.1563    3.1654    0.0076 H         1 <0>         0.1251
     32 H3          3.3051    1.9634   -0.0196 H         1 <0>         0.1244
     33 H4          1.2231   -1.7588   -0.0176 H         1 <0>         0.1238
     34 H5         -0.9258   -0.5567    0.0082 H         1 <0>         0.1249
     35 H6          3.5884   -1.6586   -0.5549 H         1 <0>         0.0794
     36 H7          4.4573   -0.1052   -0.5563 H         1 <0>         0.0798
     37 H8          3.6095   -0.6484    2.0824 H         1 <0>         0.4115
     38 H9          7.5924   -2.8368    2.4194 H         1 <0>         0.1663
     39 H10         9.2829   -3.4428    4.1361 H         1 <0>         0.1501
     40 H11         9.8849   -3.7538    6.4798 H         1 <0>         0.1456
     41 H12         6.0005   -2.4411    7.7030 H         1 <0>         0.1560
     42 H13         9.7944   -4.7234    8.3162 H         1 <0>         0.0801
     43 H14        10.3795   -3.0435    8.3784 H         1 <0>         0.0799
     44 H15        10.5779   -1.8748   10.4995 H         1 <0>         0.1253
     45 H16        10.9183   -2.0834   12.9293 H         1 <0>         0.1272
     46 H17        10.3965   -4.2033   14.0681 H         1 <0>         0.1262
     47 H18         9.5335   -6.1143   12.7772 H         1 <0>         0.1272
     48 H19         9.1851   -5.9030   10.3488 H         1 <0>         0.1254
@<TRIPOS>BOND
     1    1    6 ar
     2    1    2 ar
     3    1   30 1
     4    2    3 ar
     5    2   31 1
     6    3    4 ar
     7    3   32 1
     8    4    5 ar
     9    4    7 1
    10    5    6 ar
    11    5   33 1
    12    6   34 1
    13    7    8 1
    14    7   35 1
    15    7   36 1
    16    8    9 am
    17    8   37 1
    18    9   10 2
    19    9   11 1
    20   11   20 1
    21   11   12 2
    22   12   13 1
    23   12   38 1
    24   13   18 ar
    25   13   14 ar
    26   14   15 ar
    27   14   39 1
    28   15   16 ar
    29   15   40 1
    30   16   17 ar
    31   16   22 1
    32   17   18 ar
    33   17   41 1
    34   18   19 1
    35   19   20 1
    36   20   21 2
    37   22   23 1
    38   23   24 1
    39   23   42 1
    40   23   43 1
    41   24   29 ar
    42   24   25 ar
    43   25   26 ar
    44   25   44 1
    45   26   27 ar
    46   26   45 1
    47   27   28 ar
    48   27   46 1
    49   28   29 ar
    50   28   47 1
    51   29   48 1
@<TRIPOS>MOLECULE
CHEMBL17078
   42    44     0     0     0
SMALL
USER_CHARGES

@<TRIPOS>ATOM
      1 C1         -0.0167    1.3777    0.0096 C.ar      1 <0>        -0.1085
      2 C2          1.1710    2.0855    0.0021 C.ar      1 <0>        -0.0897
      3 C3          2.3777    1.4116   -0.0130 C.ar      1 <0>        -0.0876
      4 C4          2.3977    0.0294   -0.0210 C.ar      1 <0>        -0.0857
      5 C5          1.2098   -0.6793   -0.0135 C.ar      1 <0>        -0.0382
      6 C6          0.0021   -0.0041    0.0020 C.ar      1 <0>        -0.0982
      7 Cl1         1.2341   -2.4151   -0.0242 Cl        1 <0>        -0.0632
      8 C7          3.6718    2.1839   -0.0212 C.3       1 <0>         0.1002
      9 O1          4.0937    2.4208    1.3234 O.3       1 <0>        -0.3032
     10 C8          5.2518    3.1099    1.4940 C.ar      1 <0>         0.1607
     11 C9          5.9633    3.5534    0.3867 C.ar      1 <0>        -0.2171
     12 C10         7.1387    4.2529    0.5555 C.ar      1 <0>        -0.0273
     13 C11         7.6138    4.5160    1.8421 C.ar      1 <0>        -0.0943
     14 C12         6.8951    4.0687    2.9528 C.ar      1 <0>        -0.0215
     15 C13         5.7181    3.3740    2.7754 C.ar      1 <0>        -0.1571
     16 C14         8.8735    5.2650    2.0276 C.2       1 <0>         0.3468
     17 N1          9.3112    5.5009    3.2297 N.2       1 <0>        -0.2989
     18 N2         10.5047    6.2121    3.4195 N.am      1 <0>        -0.4530
     19 C15        11.0144    6.9284    2.3901 C.2       1 <0>         0.4637
     20 O2         12.0489    7.5494    2.5191 O.2       1 <0>        -0.4993
     21 C16        10.2675    6.9376    1.0770 C.3       1 <0>         0.0520
     22 O3          9.5648    5.6950    0.9429 O.3       1 <0>        -0.3358
     23 C17        11.1902    6.1807    4.7139 C.3       1 <0>         0.1462
     24 C18        10.6740    7.3223    5.5921 C.3       1 <0>        -0.0407
     25 C19        11.3628    7.2908    6.8927 C.1       1 <0>         0.2066
     26 N3         11.8943    7.2665    7.8963 N.1       1 <0>        -0.4220
     27 H1         -0.9592    1.9048    0.0259 H         1 <0>         0.1375
     28 H2          1.1559    3.1654    0.0076 H         1 <0>         0.1327
     29 H3          3.3407   -0.4970   -0.0336 H         1 <0>         0.1364
     30 H4         -0.9257   -0.5568    0.0079 H         1 <0>         0.1371
     31 H5          4.4349    1.6086   -0.5454 H         1 <0>         0.0786
     32 H6          3.5229    3.1370   -0.5286 H         1 <0>         0.0799
     33 H7          5.5952    3.3495   -0.6079 H         1 <0>         0.1374
     34 H8          7.6918    4.5968   -0.3061 H         1 <0>         0.1399
     35 H9          7.2594    4.2698    3.9494 H         1 <0>         0.1478
     36 H10         5.1596    3.0313    3.6338 H         1 <0>         0.1416
     37 H11         9.5587    7.7656    1.0651 H         1 <0>         0.1082
     38 H12        10.9746    7.0464    0.2547 H         1 <0>         0.1525
     39 H13        10.9952    5.2275    5.2053 H         1 <0>         0.1028
     40 H14        12.2629    6.2973    4.5598 H         1 <0>         0.1034
     41 H15        10.8690    8.2755    5.1007 H         1 <0>         0.1112
     42 H16         9.6013    7.2057    5.7462 H         1 <0>         0.1182
@<TRIPOS>BOND
     1    1    6 ar
     2    1    2 ar
     3    1   27 1
     4    2    3 ar
     5    2   28 1
     6    3    4 ar
     7    3    8 1
     8    4    5 ar
     9    4   29 1
    10    5    6 ar
    11    5    7 1
    12    6   30 1
    13    8    9 1
    14    8   31 1
    15    8   32 1
    16    9   10 1
    17   10   15 ar
    18   10   11 ar
    19   11   12 ar
    20   11   33 1
    21   12   13 ar
    22   12   34 1
    23   13   14 ar
    24   13   16 1
    25   14   15 ar
    26   14   35 1
    27   15   36 1
    28   16   22 1
    29   16   17 2
    30   17   18 1
    31   18   19 am
    32   18   23 1
    33   19   20 2
    34   19   21 1
    35   21   22 1
    36   21   37 1
    37   21   38 1
    38   23   24 1
    39   23   39 1
    40   23   40 1
    41   24   25 1
    42   24   41 1
    43   24   42 1
    44   25   26 3
@<TRIPOS>MOLECULE
CHEMBL18153
   36    38     0     0     0
SMALL
USER_CHARGES

@<TRIPOS>ATOM
      1 C1         -0.0184    1.5028    0.0103 C.3       1 <0>        -0.1302
      2 C2          0.0021   -0.0041    0.0020 C.2       1 <0>         0.0290
      3 C3          0.0061   -0.6954   -1.1674 C.2       1 <0>        -0.2307
      4 C4          0.0259   -2.1051   -1.1488 C.2       1 <0>         0.5163
      5 O1          0.0297   -2.7124   -2.2045 O.2       1 <0>        -0.4585
      6 O2          0.0411   -2.7950    0.0025 O.3       1 <0>        -0.2692
      7 C5          0.0380   -2.1693    1.1991 C.ar      1 <0>         0.1860
      8 C6          0.0243   -0.7629    1.2543 C.ar      1 <0>        -0.1840
      9 C7          0.0261   -0.1105    2.4922 C.ar      1 <0>        -0.0144
     10 C8          0.0465   -0.8421    3.6444 C.ar      1 <0>        -0.2244
     11 C9          0.0655   -2.2344    3.5961 C.ar      1 <0>         0.1893
     12 C10         0.0533   -2.8969    2.3791 C.ar      1 <0>        -0.1717
     13 O3          0.0862   -2.9478    4.7507 O.3       1 <0>        -0.3030
     14 C11         0.0871   -2.2057    5.9719 C.3       1 <0>         0.1125
     15 C12         0.1112   -3.1589    7.1389 C.ar      1 <0>         0.1176
     16 C13         0.1337   -4.5215    6.9077 C.ar      1 <0>        -0.1499
     17 C14         0.1558   -5.3897    7.9882 C.ar      1 <0>        -0.0730
     18 C15         0.1543   -4.8526    9.2667 C.ar      1 <0>        -0.1695
     19 C16         0.1310   -3.4795    9.4201 C.ar      1 <0>         0.1054
     20 N1          0.1159   -2.6834    8.3687 N.ar      1 <0>        -0.4798
     21 C17        -0.0109    0.0426   -2.4812 C.3       1 <0>        -0.0971
     22 H1          1.0042    1.8801    0.0026 H         1 <0>         0.0916
     23 H2         -0.5455    1.8639   -0.8728 H         1 <0>         0.0877
     24 H3         -0.5286    1.8543    0.9071 H         1 <0>         0.0796
     25 H4          0.0118    0.9686    2.5359 H         1 <0>         0.1451
     26 H5          0.0483   -0.3384    4.5997 H         1 <0>         0.1435
     27 H6          0.0678   -3.9764    2.3498 H         1 <0>         0.1534
     28 H7          0.9686   -1.5656    6.0074 H         1 <0>         0.0923
     29 H8         -0.8112   -1.5904    6.0238 H         1 <0>         0.0924
     30 H9          0.1339   -4.9049    5.8980 H         1 <0>         0.1450
     31 H10         0.1734   -6.4591    7.8379 H         1 <0>         0.1388
     32 H11         0.1707   -5.4992   10.1315 H         1 <0>         0.1391
     33 H12         0.1297   -3.0533   10.4124 H         1 <0>         0.1620
     34 H13         1.0125    0.2352   -2.8031 H         1 <0>         0.0756
     35 H14        -0.5199   -0.5627   -3.2313 H         1 <0>         0.0772
     36 H15        -0.5377    0.9891   -2.3595 H         1 <0>         0.0761
@<TRIPOS>BOND
     1    1    2 1
     2    1   22 1
     3    1   23 1
     4    1   24 1
     5    2    8 1
     6    2    3 2
     7    3    4 1
     8    3   21 1
     9    4    5 2
    10    4    6 1
    11    6    7 1
    12    7   12 ar
    13    7    8 ar
    14    8    9 ar
    15    9   10 ar
    16    9   25 1
    17   10   11 ar
    18   10   26 1
    19   11   12 ar
    20   11   13 1
    21   12   27 1
    22   13   14 1
    23   14   15 1
    24   14   28 1
    25   14   29 1
    26   15   20 ar
    27   15   16 ar
    28   16   17 ar
    29   16   30 1
    30   17   18 ar
    31   17   31 1
    32   18   19 ar
    33   18   32 1
    34   19   20 ar
    35   19   33 1
    36   21   34 1
    37   21   35 1
    38   21   36 1
@<TRIPOS>MOLECULE
CHEMBL453369
   49    52     0     0     0
SMALL
USER_CHARGES

@<TRIPOS>ATOM
      1 C1         -2.0308    1.4203    0.5279 C.3       1 <0>         0.0522
      2 N1         -2.3005   -0.0110    0.6861 N.am      1 <0>        -0.5582
      3 C2         -3.0520   -0.6591   -0.2343 C.2       1 <0>         0.5660
      4 O1         -3.5126   -0.0753   -1.1980 O.2       1 <0>        -0.5058
      5 C3         -3.2904   -2.0940   -0.0264 C.ar      1 <0>        -0.2278
      6 C4         -4.0504   -2.8510   -0.9166 C.ar      1 <0>        -0.0308
      7 C5         -4.2410   -4.1838   -0.6757 C.ar      1 <0>        -0.1551
      8 C6         -3.6865   -4.7889    0.4449 C.ar      1 <0>        -0.0625
      9 C7         -2.9375   -4.0707    1.3337 C.ar      1 <0>        -0.1234
     10 C8         -2.7240   -2.7063    1.1149 C.ar      1 <0>         0.1977
     11 N2         -1.9913   -1.9604    1.9658 N.2       1 <0>        -0.5419
     12 C9         -1.7870   -0.6836    1.7584 C.2       1 <0>         0.6434
     13 N3         -1.0258    0.0129    2.6643 N.pl3     1 <0>        -0.5563
     14 N4         -0.4834   -0.6449    3.7760 N.2       1 <0>        -0.1921
     15 C10         0.1441    0.0397    4.7007 C.2       1 <0>         0.1685
     16 C11         0.8675   -0.6611    5.7690 C.2       1 <0>        -0.1122
     17 C12         0.8863   -2.0068    5.7986 C.2       1 <0>        -0.0469
     18 C13         1.6120   -2.7097    6.8701 C.ar      1 <0>        -0.0545
     19 C14         2.2777   -1.9826    7.8618 C.ar      1 <0>        -0.1033
     20 C15         2.9548   -2.6471    8.8624 C.ar      1 <0>        -0.1064
     21 C16         2.9769   -4.0307    8.8873 C.ar      1 <0>        -0.1038
     22 C17         2.3205   -4.7583    7.9088 C.ar      1 <0>        -0.0353
     23 C18         1.6337   -4.1067    6.9041 C.ar      1 <0>        -0.0895
     24 Cl1         2.3559   -6.4934    7.9494 Cl        1 <0>        -0.0650
     25 C19         0.1233    1.5211    4.6682 C.ar      1 <0>        -0.0956
     26 C20        -1.0252    2.1963    4.2563 C.ar      1 <0>        -0.1270
     27 C21        -1.0387    3.5758    4.2286 C.ar      1 <0>        -0.1123
     28 C22         0.0845    4.2890    4.6078 C.ar      1 <0>        -0.1024
     29 C23         1.2269    3.6248    5.0173 C.ar      1 <0>        -0.1121
     30 C24         1.2504    2.2456    5.0547 C.ar      1 <0>        -0.0854
     31 H1         -1.1189    1.5561   -0.0534 H         1 <0>         0.0822
     32 H2         -2.8657    1.8922    0.0098 H         1 <0>         0.1051
     33 H3         -1.9074    1.8774    1.5097 H         1 <0>         0.0761
     34 H4         -4.4858   -2.3884   -1.7900 H         1 <0>         0.1346
     35 H5         -4.8294   -4.7721   -1.3641 H         1 <0>         0.1309
     36 H6         -3.8502   -5.8426    0.6163 H         1 <0>         0.1325
     37 H7         -2.5127   -4.5543    2.2009 H         1 <0>         0.1385
     38 H8         -0.8637    0.9605    2.5347 H         1 <0>         0.4019
     39 H9          1.3846   -0.0969    6.5311 H         1 <0>         0.1404
     40 H10         0.3693   -2.5709    5.0365 H         1 <0>         0.1419
     41 H11         2.2619   -0.9028    7.8438 H         1 <0>         0.1334
     42 H12         3.4695   -2.0864    9.6285 H         1 <0>         0.1357
     43 H13         3.5089   -4.5454    9.6737 H         1 <0>         0.1351
     44 H14         1.1183   -4.6750    6.1439 H         1 <0>         0.1395
     45 H15        -1.9023    1.6405    3.9594 H         1 <0>         0.1232
     46 H16        -1.9276    4.0998    3.9098 H         1 <0>         0.1307
     47 H17         0.0695    5.3686    4.5837 H         1 <0>         0.1300
     48 H18         2.1007    4.1869    5.3118 H         1 <0>         0.1321
     49 H19         2.1414    1.7283    5.3785 H         1 <0>         0.1340
@<TRIPOS>BOND
     1    1    2 1
     2    1   31 1
     3    1   32 1
     4    1   33 1
     5    2   12 1
     6    2    3 am
     7    3    4 2
     8    3    5 1
     9    5   10 ar
    10    5    6 ar
    11    6    7 ar
    12    6   34 1
    13    7    8 ar
    14    7   35 1
    15    8    9 ar
    16    8   36 1
    17    9   10 ar
    18    9   37 1
    19   10   11 1
    20   11   12 2
    21   12   13 1
    22   13   14 1
    23   13   38 1
    24   14   15 2
    25   15   16 1
    26   15   25 1
    27   16   17 2
    28   16   39 1
    29   17   18 1
    30   17   40 1
    31   18   23 ar
    32   18   19 ar
    33   19   20 ar
    34   19   41 1
    35   20   21 ar
    36   20   42 1
    37   21   22 ar
    38   21   43 1
    39   22   23 ar
    40   22   24 1
    41   23   44 1
    42   25   30 ar
    43   25   26 ar
    44   26   27 ar
    45   26   45 1
    46   27   28 ar
    47   27   46 1
    48   28   29 ar
    49   28   47 1
    50   29   30 ar
    51   29   48 1
    52   30   49 1
@<TRIPOS>MOLECULE
CHEMBL79928
   39    41     0     0     0
SMALL
USER_CHARGES

@<TRIPOS>ATOM
      1 C1         -0.0178    1.4608    0.0101 C.3       1 <0>         0.0848
      2 N1          0.0021   -0.0041    0.0020 N.am      1 <0>        -0.7258
      3 C2         -1.1558   -0.6938    0.0094 C.2       1 <0>         0.5534
      4 O1         -2.2166   -0.1004    0.0227 O.2       1 <0>        -0.5183
      5 C3         -1.1358   -2.1722    0.0012 C.ar      1 <0>        -0.0903
      6 C4          0.0829   -2.8559   -0.0083 C.ar      1 <0>        -0.0677
      7 C5          0.0991   -4.2359   -0.0143 C.ar      1 <0>        -0.0298
      8 C6         -1.0834   -4.9514   -0.0125 C.ar      1 <0>        -0.5881
      9 C7         -2.3095   -4.2844   -0.0059 C.ar      1 <0>        -0.0806
     10 C8         -2.3299   -2.8854    0.0088 C.ar      1 <0>        -0.0153
     11 C9         -3.5845   -5.0160   -0.0129 C.2       1 <0>         0.4148
     12 O2         -4.5789   -4.4323   -0.3966 O.2       1 <0>        -0.3960
     13 C10        -3.7235   -6.4166    0.4187 C.ar      1 <0>        -0.0498
     14 C11        -4.9870   -6.8868    0.8017 C.ar      1 <0>        -0.0762
     15 C12        -5.1492   -8.1913    1.2074 C.ar      1 <0>        -0.0431
     16 C13        -4.0525   -9.0545    1.2388 C.ar      1 <0>        -0.1146
     17 C14        -2.7935   -8.5897    0.8589 C.ar      1 <0>         0.0311
     18 C15        -2.6304   -7.2813    0.4539 C.ar      1 <0>        -0.6161
     19 S1         -1.0315   -6.7125   -0.0180 S.o2      1 <0>         2.5803
     20 O3         -0.1409   -7.0959    1.0208 O.2       1 <0>        -0.9077
     21 O4         -0.8418   -7.1091   -1.3693 O.2       1 <0>        -0.9065
     22 C16        -4.2252  -10.4588    1.6743 C.2       1 <0>         0.5552
     23 O5         -3.2692  -11.2086    1.7009 O.2       1 <0>        -0.5188
     24 N2         -5.4426  -10.9056    2.0413 N.am      1 <0>        -0.7269
     25 C17        -5.6135  -12.2953    2.4723 C.3       1 <0>         0.0849
     26 H1          1.0048    1.8381    0.0023 H         1 <0>         0.0820
     27 H2         -0.5450    1.8219   -0.8730 H         1 <0>         0.0657
     28 H3         -0.5280    1.8123    0.9069 H         1 <0>         0.0656
     29 H4          0.8486   -0.4776   -0.0086 H         1 <0>         0.4036
     30 H5          1.0117   -2.3046   -0.0113 H         1 <0>         0.1499
     31 H6          1.0429   -4.7608   -0.0209 H         1 <0>         0.1567
     32 H7         -3.2729   -2.3593    0.0215 H         1 <0>         0.1619
     33 H8         -5.8375   -6.2216    0.7786 H         1 <0>         0.1568
     34 H9         -6.1252   -8.5475    1.5020 H         1 <0>         0.1483
     35 H10        -1.9438   -9.2559    0.8828 H         1 <0>         0.1610
     36 H11        -6.2057  -10.3071    2.0200 H         1 <0>         0.4028
     37 H12        -5.3198  -12.9651    1.6641 H         1 <0>         0.0658
     38 H13        -4.9894  -12.4842    3.3457 H         1 <0>         0.0658
     39 H14        -6.6586  -12.4706    2.7278 H         1 <0>         0.0812
@<TRIPOS>BOND
     1    1    2 1
     2    1   26 1
     3    1   27 1
     4    1   28 1
     5    2    3 am
     6    2   29 1
     7    3    4 2
     8    3    5 1
     9    5   10 ar
    10    5    6 ar
    11    6    7 ar
    12    6   30 1
    13    7    8 ar
    14    7   31 1
    15    8   19 1
    16    8    9 ar
    17    9   10 ar
    18    9   11 1
    19   10   32 1
    20   11   12 2
    21   11   13 1
    22   13   18 ar
    23   13   14 ar
    24   14   15 ar
    25   14   33 1
    26   15   16 ar
    27   15   34 1
    28   16   17 ar
    29   16   22 1
    30   17   18 ar
    31   17   35 1
    32   18   19 1
    33   19   20 2
    34   19   21 2
    35   22   23 2
    36   22   24 am
    37   24   25 1
    38   24   36 1
    39   25   37 1
    40   25   38 1
    41   25   39 1
@<TRIPOS>MOLECULE
CHEMBL450824
   44    46     0     0     0
SMALL
USER_CHARGES

@<TRIPOS>ATOM
      1 C1         -0.0178    1.4648    0.0101 C.3       1 <0>        -0.0582
      2 N1          0.0021   -0.0041    0.0020 N.4       1 <0>        -0.3866
      3 C2          0.6897   -0.4778   -1.2066 C.3       1 <0>        -0.0115
      4 C3          2.1588   -0.0534   -1.1571 C.3       1 <0>        -0.1442
      5 C4          2.8749   -0.5468   -2.4159 C.3       1 <0>        -0.0724
      6 C5          4.3219   -0.1287   -2.3671 C.ar      1 <0>        -0.1014
      7 C6          4.7082    1.0879   -2.8977 C.ar      1 <0>        -0.1162
      8 C7          6.0355    1.4714   -2.8530 C.ar      1 <0>        -0.1156
      9 C8          6.9765    0.6385   -2.2771 C.ar      1 <0>        -0.1129
     10 C9          6.5902   -0.5777   -1.7457 C.ar      1 <0>        -0.1151
     11 C10         5.2622   -0.9593   -1.7866 C.ar      1 <0>        -0.1153
     12 C11        -1.3761   -0.5125    0.0124 C.3       1 <0>         0.0693
     13 C12        -2.0429   -0.1300    1.3086 C.2       1 <0>        -0.0134
     14 C13        -2.1113   -0.9094    2.3994 C.2       1 <0>        -0.1234
     15 C14        -2.8393   -0.1531    3.4211 C.ar      1 <0>        -0.1246
     16 C15        -3.2225   -0.4201    4.7370 C.ar      1 <0>        -0.0607
     17 C16        -3.9138    0.5211    5.4463 C.ar      1 <0>        -0.1367
     18 C17        -4.2384    1.7413    4.8691 C.ar      1 <0>        -0.0725
     19 C18        -3.8702    2.0254    3.5726 C.ar      1 <0>        -0.1367
     20 C19        -3.1657    1.0817    2.8317 C.ar      1 <0>         0.1183
     21 N2         -2.6631    1.0656    1.5500 N.pl3     1 <0>        -0.5924
     22 H1         -2.7390    1.7926    0.9125 H         1 <0>         0.4164
     23 H2          1.0047    1.8421    0.0024 H         1 <0>         0.1292
     24 H3         -0.5450    1.8259   -0.8730 H         1 <0>         0.1228
     25 H4         -0.5280    1.8163    0.9069 H         1 <0>         0.1187
     26 H5          0.6271   -1.5648   -1.2578 H         1 <0>         0.1348
     27 H6          0.2159   -0.0447   -2.0875 H         1 <0>         0.1316
     28 H7          2.2214    1.0336   -1.1059 H         1 <0>         0.0885
     29 H8          2.6326   -0.4865   -0.2761 H         1 <0>         0.0893
     30 H9          2.8123   -1.6338   -2.4670 H         1 <0>         0.0836
     31 H10         2.4011   -0.1137   -3.2968 H         1 <0>         0.0826
     32 H11         3.9729    1.7386   -3.3476 H         1 <0>         0.1208
     33 H12         6.3373    2.4216   -3.2682 H         1 <0>         0.1260
     34 H13         8.0137    0.9378   -2.2428 H         1 <0>         0.1267
     35 H14         7.3255   -1.2286   -1.2961 H         1 <0>         0.1265
     36 H15         4.9597   -1.9079   -1.3681 H         1 <0>         0.1219
     37 H16        -1.9290   -0.0808   -0.8218 H         1 <0>         0.1371
     38 H17        -1.3635   -1.5983   -0.0831 H         1 <0>         0.1537
     39 H18        -1.7064   -1.9052    2.5039 H         1 <0>         0.1579
     40 H19        -2.9737   -1.3672    5.1924 H         1 <0>         0.1303
     41 H20        -4.2103    0.3140    6.4639 H         1 <0>         0.1329
     42 H21        -4.7855    2.4750    5.4424 H         1 <0>         0.1355
     43 H22        -4.1278    2.9774    3.1324 H         1 <0>         0.1270
     44 H23         0.4901   -0.3383    0.8195 H         1 <0>         0.4283
@<TRIPOS>BOND
     1    1    2 1
     2    1   23 1
     3    1   24 1
     4    1   25 1
     5    2    3 1
     6    2   12 1
     7    2   44 1
     8    3    4 1
     9    3   26 1
    10    3   27 1
    11    4    5 1
    12    4   28 1
    13    4   29 1
    14    5    6 1
    15    5   30 1
    16    5   31 1
    17    6   11 ar
    18    6    7 ar
    19    7    8 ar
    20    7   32 1
    21    8    9 ar
    22    8   33 1
    23    9   10 ar
    24    9   34 1
    25   10   11 ar
    26   10   35 1
    27   11   36 1
    28   12   13 1
    29   12   37 1
    30   12   38 1
    31   13   21 1
    32   13   14 2
    33   14   15 1
    34   14   39 1
    35   15   20 ar
    36   15   16 ar
    37   16   17 ar
    38   16   40 1
    39   17   18 ar
    40   17   41 1
    41   18   19 ar
    42   18   42 1
    43   19   20 ar
    44   19   43 1
    45   20   21 1
    46   21   22 1
@<TRIPOS>MOLECULE
CHEMBL570731
   34    36     0     0     0
SMALL
USER_CHARGES

@<TRIPOS>ATOM
      1 C1         -0.0184    1.5028    0.0103 C.3       1 <0>        -0.1163
      2 C2          0.0021   -0.0041    0.0020 C.ar      1 <0>        -0.1033
      3 C3          0.0057   -0.6854   -1.2069 C.ar      1 <0>        -0.0681
      4 C4          0.0222   -2.0648   -1.2370 C.ar      1 <0>        -0.1248
      5 C5          0.0366   -2.7799   -0.0479 C.ar      1 <0>         0.1277
      6 C6          0.0370   -2.0873    1.1771 C.ar      1 <0>        -0.1440
      7 C7          0.0226   -0.6877    1.1849 C.ar      1 <0>        -0.0587
      8 C8          0.0612   -2.8466    2.4298 C.2       1 <0>         0.0001
      9 C9          0.3518   -4.1877    2.3513 C.2       1 <0>        -0.1639
     10 C10         0.6140   -4.7451    1.0133 C.2       1 <0>         0.5189
     11 O1          1.3183   -5.7275    0.8716 O.2       1 <0>        -0.4271
     12 O2          0.0492   -4.1343   -0.0533 O.3       1 <0>        -0.2770
     13 C11         0.3999   -5.0383    3.5637 C.ar      1 <0>         0.0028
     14 C12         1.3672   -4.8080    4.5420 C.ar      1 <0>        -0.1351
     15 C13         1.4096   -5.6017    5.6701 C.ar      1 <0>        -0.0768
     16 C14         0.4954   -6.6260    5.8343 C.ar      1 <0>        -0.2003
     17 C15        -0.4702   -6.8624    4.8656 C.ar      1 <0>         0.1313
     18 C16        -0.5247   -6.0671    3.7328 C.ar      1 <0>        -0.1305
     19 O3         -1.3661   -7.8709    5.0312 O.3       1 <0>        -0.3162
     20 C17        -1.2554   -8.6473    6.2258 C.3       1 <0>         0.0262
     21 H1          1.0042    1.8801    0.0026 H         1 <0>         0.0746
     22 H2         -0.5455    1.8639   -0.8728 H         1 <0>         0.0711
     23 H3         -0.5286    1.8543    0.9071 H         1 <0>         0.0703
     24 H4         -0.0049   -0.1304   -2.1334 H         1 <0>         0.1402
     25 H5          0.0237   -2.5861   -2.1828 H         1 <0>         0.1449
     26 H6          0.0236   -0.1506    2.1218 H         1 <0>         0.1392
     27 H7         -0.1411   -2.3709    3.3780 H         1 <0>         0.1567
     28 H8          2.0829   -4.0090    4.4165 H         1 <0>         0.1278
     29 H9          2.1593   -5.4226    6.4266 H         1 <0>         0.1312
     30 H10         0.5330   -7.2443    6.7191 H         1 <0>         0.1316
     31 H11        -1.2787   -6.2467    2.9807 H         1 <0>         0.1310
     32 H12        -0.2733   -9.1188    6.2630 H         1 <0>         0.0572
     33 H13        -1.3803   -7.9991    7.0932 H         1 <0>         0.0569
     34 H14        -2.0280   -9.4161    6.2324 H         1 <0>         0.1023
@<TRIPOS>BOND
     1    1    2 1
     2    1   21 1
     3    1   22 1
     4    1   23 1
     5    2    7 ar
     6    2    3 ar
     7    3    4 ar
     8    3   24 1
     9    4    5 ar
    10    4   25 1
    11    5   12 1
    12    5    6 ar
    13    6    7 ar
    14    6    8 1
    15    7   26 1
    16    8    9 2
    17    8   27 1
    18    9   10 1
    19    9   13 1
    20   10   11 2
    21   10   12 1
    22   13   18 ar
    23   13   14 ar
    24   14   15 ar
    25   14   28 1
    26   15   16 ar
    27   15   29 1
    28   16   17 ar
    29   16   30 1
    30   17   18 ar
    31   17   19 1
    32   18   31 1
    33   19   20 1
    34   20   32 1
    35   20   33 1
    36   20   34 1
@<TRIPOS>MOLECULE
CHEMBL597373
   40    42     0     0     0
SMALL
USER_CHARGES

@<TRIPOS>ATOM
      1 C1         -0.0167    1.3781    0.0096 C.ar      1 <0>        -0.1032
      2 C2          1.1709    2.0855    0.0021 C.ar      1 <0>        -0.1212
      3 C3          2.3773    1.4107   -0.0130 C.ar      1 <0>        -0.0941
      4 C4          2.3960    0.0285   -0.0201 C.ar      1 <0>        -0.1073
      5 C5          1.2084   -0.6789   -0.0117 C.ar      1 <0>        -0.0946
      6 C6          0.0021   -0.0041    0.0020 C.ar      1 <0>        -0.1218
      7 C7          3.7112   -0.7071   -0.0376 C.3       1 <0>         0.1022
      8 O1          4.1410   -0.9464    1.3041 O.3       1 <0>        -0.3016
      9 C8          5.3186   -1.6049    1.4665 C.ar      1 <0>         0.1621
     10 C9          6.0483   -2.0075    0.3574 C.ar      1 <0>        -0.2089
     11 C10         7.2453   -2.6763    0.5252 C.ar      1 <0>        -0.0455
     12 C11         7.7160   -2.9451    1.7972 C.ar      1 <0>        -0.1434
     13 C12         6.9904   -2.5454    2.9042 C.ar      1 <0>        -0.0540
     14 C13         5.7959   -1.8708    2.7418 C.ar      1 <0>        -0.1495
     15 C14         9.0219   -3.6754    1.9773 C.3       1 <0>        -0.0294
     16 C15         8.7883   -4.9630    2.7764 C.3       1 <0>        -0.0123
     17 N1         10.0475   -5.6972    2.9158 N.4       1 <0>        -0.5088
     18 C16        10.9290   -5.0568    3.8940 C.3       1 <0>        -0.0121
     19 C17        11.5392   -3.7857    3.2915 C.3       1 <0>        -0.1359
     20 S1         10.1863   -2.6303    2.9073 S.3       1 <0>        -0.1849
     21 H1         -0.9591    1.9053    0.0259 H         1 <0>         0.1280
     22 H2          1.1563    3.1654    0.0076 H         1 <0>         0.1285
     23 H3          3.3051    1.9634   -0.0196 H         1 <0>         0.1243
     24 H4          1.2231   -1.7588   -0.0176 H         1 <0>         0.1236
     25 H5         -0.9258   -0.5567    0.0082 H         1 <0>         0.1281
     26 H6          3.5884   -1.6586   -0.5549 H         1 <0>         0.0754
     27 H7          4.4573   -0.1052   -0.5563 H         1 <0>         0.0759
     28 H8          5.6808   -1.7984   -0.6363 H         1 <0>         0.1380
     29 H9          7.8138   -2.9899   -0.3379 H         1 <0>         0.1307
     30 H10         7.3600   -2.7569    3.8967 H         1 <0>         0.1340
     31 H11         5.2316   -1.5549    3.6068 H         1 <0>         0.1406
     32 H12         9.4444   -3.9187    1.0024 H         1 <0>         0.1185
     33 H13         8.4046   -4.7111    3.7650 H         1 <0>         0.1453
     34 H14         8.0615   -5.5860    2.2550 H         1 <0>         0.1495
     35 H15         9.8491   -6.6397    3.2166 H         1 <0>         0.4396
     36 H16        10.3549   -4.7965    4.7832 H         1 <0>         0.1443
     37 H17        11.7270   -5.7466    4.1686 H         1 <0>         0.1478
     38 H18        12.2200   -3.3288    4.0097 H         1 <0>         0.1539
     39 H19        12.0802   -4.0348    2.3786 H         1 <0>         0.1108
     40 H20        10.5132   -5.7278    2.0212 H         1 <0>         0.4273
@<TRIPOS>BOND
     1    1    6 ar
     2    1    2 ar
     3    1   21 1
     4    2    3 ar
     5    2   22 1
     6    3    4 ar
     7    3   23 1
     8    4    5 ar
     9    4    7 1
    10    5    6 ar
    11    5   24 1
    12    6   25 1
    13    7    8 1
    14    7   26 1
    15    7   27 1
    16    8    9 1
    17    9   14 ar
    18    9   10 ar
    19   10   11 ar
    20   10   28 1
    21   11   12 ar
    22   11   29 1
    23   12   13 ar
    24   12   15 1
    25   13   14 ar
    26   13   30 1
    27   14   31 1
    28   15   20 1
    29   15   16 1
    30   15   32 1
    31   16   17 1
    32   16   33 1
    33   16   34 1
    34   17   18 1
    35   17   35 1
    36   17   40 1
    37   18   19 1
    38   18   36 1
    39   18   37 1
    40   19   20 1
    41   19   38 1
    42   19   39 1
@<TRIPOS>MOLECULE
CHEMBL597373__1
   40    42     0     0     0
SMALL
USER_CHARGES

@<TRIPOS>ATOM
      1 C1         -0.0167    1.3781    0.0096 C.ar      1 <0>        -0.1032
      2 C2          1.1709    2.0855    0.0021 C.ar      1 <0>        -0.1218
      3 C3          2.3773    1.4107   -0.0130 C.ar      1 <0>        -0.0946
      4 C4          2.3960    0.0285   -0.0201 C.ar      1 <0>        -0.1073
      5 C5          1.2084   -0.6789   -0.0117 C.ar      1 <0>        -0.0941
      6 C6          0.0021   -0.0041    0.0020 C.ar      1 <0>        -0.1212
      7 C7          3.7112   -0.7071   -0.0376 C.3       1 <0>         0.1022
      8 O1          4.1410   -0.9464    1.3041 O.3       1 <0>        -0.3016
      9 C8          5.3186   -1.6049    1.4665 C.ar      1 <0>         0.1622
     10 C9          6.0483   -2.0075    0.3574 C.ar      1 <0>        -0.2089
     11 C10         7.2453   -2.6763    0.5252 C.ar      1 <0>        -0.0454
     12 C11         7.7160   -2.9451    1.7972 C.ar      1 <0>        -0.1435
     13 C12         6.9904   -2.5454    2.9042 C.ar      1 <0>        -0.0538
     14 C13         5.7959   -1.8708    2.7418 C.ar      1 <0>        -0.1496
     15 C14         9.0219   -3.6754    1.9773 C.3       1 <0>        -0.0294
     16 C15         9.9926   -2.8069    2.7863 C.3       1 <0>        -0.0122
     17 N1         11.2776   -3.4951    2.9259 N.4       1 <0>        -0.5088
     18 C16        11.1907   -4.5884    3.8961 C.3       1 <0>        -0.0121
     19 C17        10.4307   -5.7702    3.2823 C.3       1 <0>        -0.1359
     20 S1          8.7390   -5.2214    2.8953 S.3       1 <0>        -0.1849
     21 H1         -0.9591    1.9053    0.0259 H         1 <0>         0.1280
     22 H2          1.1563    3.1654    0.0076 H         1 <0>         0.1281
     23 H3          3.3051    1.9634   -0.0196 H         1 <0>         0.1236
     24 H4          1.2231   -1.7588   -0.0176 H         1 <0>         0.1243
     25 H5         -0.9258   -0.5567    0.0082 H         1 <0>         0.1284
     26 H6          3.5884   -1.6586   -0.5549 H         1 <0>         0.0759
     27 H7          4.4573   -0.1052   -0.5563 H         1 <0>         0.0755
     28 H8          5.6808   -1.7984   -0.6363 H         1 <0>         0.1380
     29 H9          7.8138   -2.9899   -0.3379 H         1 <0>         0.1307
     30 H10         7.3600   -2.7569    3.8967 H         1 <0>         0.1341
     31 H11         5.2316   -1.5549    3.6068 H         1 <0>         0.1406
     32 H12         9.4544   -3.9007    1.0025 H         1 <0>         0.1184
     33 H13        10.1440   -1.8578    2.2722 H         1 <0>         0.1495
     34 H14         9.5730   -2.6192    3.7747 H         1 <0>         0.1453
     35 H15        11.5513   -3.8693    2.0298 H         1 <0>         0.4273
     36 H16        12.1954   -4.9081    4.1725 H         1 <0>         0.1478
     37 H17        10.6645   -4.2422    4.7858 H         1 <0>         0.1444
     38 H18        10.9301   -6.0938    2.3691 H         1 <0>         0.1108
     39 H19        10.3958   -6.5945    3.9946 H         1 <0>         0.1539
     40 H20        11.9748   -2.8341    3.2342 H         1 <0>         0.4396
@<TRIPOS>BOND
     1    1    6 ar
     2    1    2 ar
     3    1   21 1
     4    2    3 ar
     5    2   22 1
     6    3    4 ar
     7    3   23 1
     8    4    5 ar
     9    4    7 1
    10    5    6 ar
    11    5   24 1
    12    6   25 1
    13    7    8 1
    14    7   26 1
    15    7   27 1
    16    8    9 1
    17    9   14 ar
    18    9   10 ar
    19   10   11 ar
    20   10   28 1
    21   11   12 ar
    22   11   29 1
    23   12   13 ar
    24   12   15 1
    25   13   14 ar
    26   13   30 1
    27   14   31 1
    28   15   20 1
    29   15   16 1
    30   15   32 1
    31   16   17 1
    32   16   33 1
    33   16   34 1
    34   17   18 1
    35   17   35 1
    36   17   40 1
    37   18   19 1
    38   18   36 1
    39   18   37 1
    40   19   20 1
    41   19   38 1
    42   19   39 1
@<TRIPOS>MOLECULE
CHEMBL597372
   39    40     0     0     0
SMALL
USER_CHARGES

@<TRIPOS>ATOM
      1 C1         -0.0187    1.5258    0.0104 C.3       1 <0>        -0.1546
      2 C2          0.0021   -0.0041    0.0020 C.3       1 <0>        -0.1213
      3 C3          0.7182   -0.4975   -1.2568 C.3       1 <0>        -0.1216
      4 C4          0.7390   -2.0273   -1.2652 C.3       1 <0>         0.0561
      5 O1          1.4078   -2.4882   -2.4409 O.3       1 <0>        -0.3081
      6 C5          1.5136   -3.8333   -2.6034 C.ar      1 <0>         0.1626
      7 C6          0.9795   -4.6920   -1.6536 C.ar      1 <0>        -0.2082
      8 C7          1.0880   -6.0589   -1.8213 C.ar      1 <0>        -0.0460
      9 C8          1.7286   -6.5714   -2.9343 C.ar      1 <0>        -0.1436
     10 C9          2.2621   -5.7177   -3.8820 C.ar      1 <0>        -0.0542
     11 C10         2.1509   -4.3500   -3.7221 C.ar      1 <0>        -0.1505
     12 C11         1.8459   -8.0630   -3.1144 C.3       1 <0>        -0.0293
     13 C12         3.3246   -8.4579   -3.2069 C.3       1 <0>        -0.0122
     14 N1          3.4440   -9.9114   -3.3381 N.4       1 <0>        -0.5088
     15 C13         3.0732  -10.3544   -4.6836 C.3       1 <0>        -0.0120
     16 C14         1.5503  -10.2931   -4.8508 C.3       1 <0>        -0.1359
     17 S1          1.0248   -8.5609   -4.6606 S.3       1 <0>        -0.1849
     18 H1          1.0039    1.9031    0.0027 H         1 <0>         0.0573
     19 H2         -0.5459    1.8868   -0.8726 H         1 <0>         0.0575
     20 H3         -0.5289    1.8773    0.9072 H         1 <0>         0.0602
     21 H4          0.5293   -0.3651    0.8851 H         1 <0>         0.0653
     22 H5         -1.0205   -0.3814    0.0098 H         1 <0>         0.0657
     23 H6          0.1910   -0.1364   -2.1398 H         1 <0>         0.0769
     24 H7          1.7408   -0.1202   -1.2645 H         1 <0>         0.0765
     25 H8          1.2661   -2.3884   -0.3821 H         1 <0>         0.0665
     26 H9         -0.2836   -2.4046   -1.2575 H         1 <0>         0.0670
     27 H10         0.4797   -4.2922   -0.7837 H         1 <0>         0.1377
     28 H11         0.6724   -6.7278   -1.0822 H         1 <0>         0.1305
     29 H12         2.7624   -6.1204   -4.7503 H         1 <0>         0.1341
     30 H13         2.5639   -3.6836   -4.4648 H         1 <0>         0.1407
     31 H14         1.3808   -8.5727   -2.2707 H         1 <0>         0.1184
     32 H15         3.7740   -7.9777   -4.0761 H         1 <0>         0.1453
     33 H16         3.8436   -8.1317   -2.3056 H         1 <0>         0.1494
     34 H17         4.3977  -10.1830   -3.1516 H         1 <0>         0.4396
     35 H18         3.5450   -9.7055   -5.4214 H         1 <0>         0.1443
     36 H19         3.4131  -11.3790   -4.8340 H         1 <0>         0.1478
     37 H20         1.2746  -10.6542   -5.8416 H         1 <0>         0.1539
     38 H21         1.0718  -10.9082   -4.0887 H         1 <0>         0.1108
     39 H22         2.8372  -10.3550   -2.6649 H         1 <0>         0.4273
@<TRIPOS>BOND
     1    1    2 1
     2    1   18 1
     3    1   19 1
     4    1   20 1
     5    2    3 1
     6    2   21 1
     7    2   22 1
     8    3    4 1
     9    3   23 1
    10    3   24 1
    11    4    5 1
    12    4   25 1
    13    4   26 1
    14    5    6 1
    15    6   11 ar
    16    6    7 ar
    17    7    8 ar
    18    7   27 1
    19    8    9 ar
    20    8   28 1
    21    9   10 ar
    22    9   12 1
    23   10   11 ar
    24   10   29 1
    25   11   30 1
    26   12   17 1
    27   12   13 1
    28   12   31 1
    29   13   14 1
    30   13   32 1
    31   13   33 1
    32   14   15 1
    33   14   34 1
    34   14   39 1
    35   15   16 1
    36   15   35 1
    37   15   36 1
    38   16   17 1
    39   16   37 1
    40   16   38 1
@<TRIPOS>MOLECULE
CHEMBL597372__1
   39    40     0     0     0
SMALL
USER_CHARGES

@<TRIPOS>ATOM
      1 C1         -0.0187    1.5258    0.0104 C.3       1 <0>        -0.1546
      2 C2          0.0021   -0.0041    0.0020 C.3       1 <0>        -0.1214
      3 C3          0.7182   -0.4975   -1.2568 C.3       1 <0>        -0.1216
      4 C4          0.7390   -2.0273   -1.2652 C.3       1 <0>         0.0560
      5 O1          1.4078   -2.4882   -2.4409 O.3       1 <0>        -0.3081
      6 C5          1.5136   -3.8333   -2.6034 C.ar      1 <0>         0.1627
      7 C6          0.9795   -4.6920   -1.6536 C.ar      1 <0>        -0.2083
      8 C7          1.0880   -6.0589   -1.8213 C.ar      1 <0>        -0.0459
      9 C8          1.7286   -6.5714   -2.9343 C.ar      1 <0>        -0.1437
     10 C9          2.2621   -5.7177   -3.8820 C.ar      1 <0>        -0.0541
     11 C10         2.1509   -4.3500   -3.7221 C.ar      1 <0>        -0.1507
     12 C11         1.8459   -8.0630   -3.1144 C.3       1 <0>        -0.0293
     13 C12         1.1802   -8.4786   -4.4316 C.3       1 <0>        -0.0122
     14 N1          1.2537   -9.9326   -4.5890 N.4       1 <0>        -0.5088
     15 C13         2.6073  -10.3589   -4.9496 C.3       1 <0>        -0.0121
     16 C14         3.5241  -10.2740   -3.7236 C.3       1 <0>        -0.1359
     17 S1          3.6020   -8.5360   -3.1888 S.3       1 <0>        -0.1850
     18 H1          1.0039    1.9031    0.0027 H         1 <0>         0.0576
     19 H2         -0.5459    1.8868   -0.8726 H         1 <0>         0.0573
     20 H3         -0.5289    1.8773    0.9072 H         1 <0>         0.0602
     21 H4          0.5293   -0.3651    0.8851 H         1 <0>         0.0657
     22 H5         -1.0205   -0.3814    0.0098 H         1 <0>         0.0653
     23 H6          0.1910   -0.1364   -2.1398 H         1 <0>         0.0765
     24 H7          1.7408   -0.1202   -1.2645 H         1 <0>         0.0769
     25 H8          1.2661   -2.3884   -0.3821 H         1 <0>         0.0670
     26 H9         -0.2836   -2.4046   -1.2575 H         1 <0>         0.0665
     27 H10         0.4797   -4.2922   -0.7837 H         1 <0>         0.1377
     28 H11         0.6724   -6.7278   -1.0822 H         1 <0>         0.1305
     29 H12         2.7624   -6.1204   -4.7503 H         1 <0>         0.1341
     30 H13         2.5639   -3.6836   -4.4648 H         1 <0>         0.1407
     31 H14         1.3629   -8.5729   -2.2809 H         1 <0>         0.1184
     32 H15         0.1355   -8.1676   -4.4234 H         1 <0>         0.1494
     33 H16         1.6934   -7.9978   -5.2644 H         1 <0>         0.1453
     34 H17         0.9887  -10.3729   -3.7207 H         1 <0>         0.4273
     35 H18         2.5791  -11.3871   -5.3103 H         1 <0>         0.1478
     36 H19         2.9936   -9.7108   -5.7363 H         1 <0>         0.1443
     37 H20         3.1197  -10.8883   -2.9191 H         1 <0>         0.1108
     38 H21         4.5228  -10.6228   -3.9866 H         1 <0>         0.1540
     39 H22         0.6126  -10.2196   -5.3133 H         1 <0>         0.4396
@<TRIPOS>BOND
     1    1    2 1
     2    1   18 1
     3    1   19 1
     4    1   20 1
     5    2    3 1
     6    2   21 1
     7    2   22 1
     8    3    4 1
     9    3   23 1
    10    3   24 1
    11    4    5 1
    12    4   25 1
    13    4   26 1
    14    5    6 1
    15    6   11 ar
    16    6    7 ar
    17    7    8 ar
    18    7   27 1
    19    8    9 ar
    20    8   28 1
    21    9   10 ar
    22    9   12 1
    23   10   11 ar
    24   10   29 1
    25   11   30 1
    26   12   17 1
    27   12   13 1
    28   12   31 1
    29   13   14 1
    30   13   32 1
    31   13   33 1
    32   14   15 1
    33   14   34 1
    34   14   39 1
    35   15   16 1
    36   15   35 1
    37   15   36 1
    38   16   17 1
    39   16   37 1
    40   16   38 1
@<TRIPOS>MOLECULE
CHEMBL374335
   32    33     0     0     0
SMALL
USER_CHARGES

@<TRIPOS>ATOM
      1 C1         -0.0178    1.4648    0.0101 C.3       1 <0>        -0.0559
      2 N1          0.0021   -0.0041    0.0020 N.4       1 <0>        -0.3851
      3 C2          0.7126   -0.4907    1.1921 C.3       1 <0>         0.0438
      4 C3         -0.0593   -0.1093    2.4290 C.ar      1 <0>        -0.1622
      5 C4          0.1883    1.0991    3.0530 C.ar      1 <0>        -0.0977
      6 C5         -0.5197    1.4490    4.1875 C.ar      1 <0>        -0.1144
      7 C6         -1.4757    0.5907    4.6977 C.ar      1 <0>        -0.0838
      8 C7         -1.7240   -0.6172    4.0732 C.ar      1 <0>        -0.1128
      9 C8         -1.0189   -0.9652    2.9362 C.ar      1 <0>        -0.0930
     10 C9          0.6897   -0.4778   -1.2066 C.3       1 <0>         0.0769
     11 C10        -0.1056   -0.0832   -2.4243 C.2       1 <0>        -0.0797
     12 C11        -1.0116   -0.8532   -3.0605 C.2       1 <0>        -0.1316
     13 C12        -1.5171   -0.1041   -4.1414 C.2       1 <0>        -0.2004
     14 C13        -0.9008    1.0953   -4.1244 C.2       1 <0>         0.0380
     15 N2         -0.0376    1.1161   -3.0692 N.pl3     1 <0>        -0.5550
     16 H1          0.5325    1.8603   -2.8201 H         1 <0>         0.4179
     17 H2          1.0047    1.8421    0.0024 H         1 <0>         0.1204
     18 H3         -0.5450    1.8259   -0.8730 H         1 <0>         0.1165
     19 H4         -0.5280    1.8163    0.9069 H         1 <0>         0.1269
     20 H5          0.8051   -1.5756    1.1418 H         1 <0>         0.1387
     21 H6          1.7055   -0.0428    1.2310 H         1 <0>         0.1353
     22 H7          0.9352    1.7697    2.6543 H         1 <0>         0.1300
     23 H8         -0.3258    2.3928    4.6754 H         1 <0>         0.1360
     24 H9         -2.0284    0.8638    5.5845 H         1 <0>         0.1361
     25 H10        -2.4706   -1.2879    4.4721 H         1 <0>         0.1367
     26 H11        -1.2155   -1.9074    2.4461 H         1 <0>         0.1322
     27 H12         1.6817   -0.0294   -1.2596 H         1 <0>         0.1323
     28 H13         0.7830   -1.5632   -1.1697 H         1 <0>         0.1495
     29 H14        -1.2969   -1.8595   -2.7913 H         1 <0>         0.1479
     30 H15        -2.2611   -0.4304   -4.8529 H         1 <0>         0.1502
     31 H16        -1.0657    1.9018   -4.8236 H         1 <0>         0.1791
     32 H17        -0.9445   -0.3533    0.0092 H         1 <0>         0.4269
@<TRIPOS>BOND
     1    1    2 1
     2    1   17 1
     3    1   18 1
     4    1   19 1
     5    2    3 1
     6    2   10 1
     7    2   32 1
     8    3    4 1
     9    3   20 1
    10    3   21 1
    11    4    9 ar
    12    4    5 ar
    13    5    6 ar
    14    5   22 1
    15    6    7 ar
    16    6   23 1
    17    7    8 ar
    18    7   24 1
    19    8    9 ar
    20    8   25 1
    21    9   26 1
    22   10   11 1
    23   10   27 1
    24   10   28 1
    25   11   15 1
    26   11   12 2
    27   12   13 1
    28   12   29 1
    29   13   14 2
    30   13   30 1
    31   14   15 1
    32   14   31 1
    33   15   16 1
@<TRIPOS>MOLECULE
CHEMBL374335__1
   31    32     0     0     0
SMALL
USER_CHARGES

@<TRIPOS>ATOM
      1 C1         -0.0178    1.4648    0.0101 C.3       1 <0>         0.0169
      2 N1          0.0021   -0.0041    0.0020 N.3       1 <0>        -0.5299
      3 C2          0.7062   -0.5275    1.1802 C.3       1 <0>         0.0927
      4 C3         -0.0734   -0.1864    2.4240 C.ar      1 <0>        -0.0799
      5 C4          0.1690    1.0019    3.0875 C.ar      1 <0>        -0.1149
      6 C5         -0.5461    1.3148    4.2284 C.ar      1 <0>        -0.1219
      7 C6         -1.5040    0.4397    4.7055 C.ar      1 <0>        -0.1192
      8 C7         -1.7471   -0.7481    4.0414 C.ar      1 <0>        -0.1206
      9 C8         -1.0349   -1.0590    2.8981 C.ar      1 <0>        -0.0968
     10 C9          0.5996   -0.5156   -1.2387 C.3       1 <0>         0.1237
     11 C10        -0.2863   -0.1627   -2.4056 C.2       1 <0>         0.0176
     12 C11        -1.2337   -0.9550   -2.9469 C.2       1 <0>        -0.1752
     13 C12        -1.8220   -0.2426   -4.0106 C.2       1 <0>        -0.2015
     14 C13        -1.2116    0.9579   -4.0788 C.2       1 <0>        -0.0124
     15 N2         -0.2721    1.0151   -3.0924 N.pl3     1 <0>        -0.5592
     16 H1          0.3117    1.7681   -2.9109 H         1 <0>         0.4094
     17 H2          1.0047    1.8421    0.0024 H         1 <0>         0.0240
     18 H3         -0.5450    1.8259   -0.8730 H         1 <0>         0.0663
     19 H4         -0.5280    1.8163    0.9069 H         1 <0>         0.0757
     20 H5          0.8004   -1.6101    1.0960 H         1 <0>         0.0866
     21 H6          1.6983   -0.0800    1.2392 H         1 <0>         0.0441
     22 H7          0.9174    1.6855    2.7148 H         1 <0>         0.1168
     23 H8         -0.3562    2.2428    4.7472 H         1 <0>         0.1210
     24 H9         -2.0622    0.6839    5.5972 H         1 <0>         0.1212
     25 H10        -2.4952   -1.4319    4.4143 H         1 <0>         0.1226
     26 H11        -1.2275   -1.9853    2.3772 H         1 <0>         0.1232
     27 H12         1.5829   -0.0671   -1.3803 H         1 <0>         0.0398
     28 H13         0.7003   -1.5990   -1.1736 H         1 <0>         0.0982
     29 H14        -1.4936   -1.9525   -2.6246 H         1 <0>         0.1343
     30 H15        -2.6157   -0.5936   -4.6535 H         1 <0>         0.1348
     31 H16        -1.4319    1.7408   -4.7894 H         1 <0>         0.1626
@<TRIPOS>BOND
     1    1    2 1
     2    1   17 1
     3    1   18 1
     4    1   19 1
     5    2    3 1
     6    2   10 1
     7    3    4 1
     8    3   20 1
     9    3   21 1
    10    4    9 ar
    11    4    5 ar
    12    5    6 ar
    13    5   22 1
    14    6    7 ar
    15    6   23 1
    16    7    8 ar
    17    7   24 1
    18    8    9 ar
    19    8   25 1
    20    9   26 1
    21   10   11 1
    22   10   27 1
    23   10   28 1
    24   11   15 1
    25   11   12 2
    26   12   13 1
    27   12   29 1
    28   13   14 2
    29   13   30 1
    30   14   15 1
    31   14   31 1
    32   15   16 1
@<TRIPOS>MOLECULE
CHEMBL472080
   37    39     0     0     0
SMALL
USER_CHARGES

@<TRIPOS>ATOM
      1 C1         -0.0164    1.3611    0.0095 C.ar      1 <0>        -0.1417
      2 C2          1.1690    2.0834    0.0021 C.ar      1 <0>        -0.0499
      3 C3          2.3865    1.4353   -0.0257 C.ar      1 <0>        -0.1357
      4 C4          2.4302    0.0476   -0.0395 C.ar      1 <0>         0.1499
      5 C5          1.2287   -0.6841   -0.0031 C.ar      1 <0>        -0.1686
      6 C6          0.0021   -0.0041    0.0020 C.ar      1 <0>        -0.0413
      7 C7          1.2660   -2.1015    0.0478 C.2       1 <0>         0.0797
      8 C8          2.4936   -2.7155    0.2555 C.2       1 <0>        -0.2784
      9 C9          3.6656   -1.8409    0.4424 C.2       1 <0>         0.5261
     10 O1          4.6423   -2.2218    1.0600 O.2       1 <0>        -0.4387
     11 O2          3.6186   -0.6003   -0.0955 O.3       1 <0>        -0.2695
     12 C10         2.6201   -4.1824    0.2885 C.2       1 <0>         0.5804
     13 O3          1.6370   -4.8811    0.1319 O.2       1 <0>        -0.5356
     14 N1          3.8252   -4.7504    0.4922 N.am      1 <0>        -0.7166
     15 C11         3.9510   -6.2097    0.5250 C.3       1 <0>         0.1449
     16 C12         3.6371   -6.7171    1.9339 C.3       1 <0>        -0.1297
     17 C13         3.7684   -8.2410    1.9681 C.3       1 <0>        -0.1168
     18 C14         5.1965   -8.6385    1.5893 C.3       1 <0>        -0.1232
     19 C15         5.5104   -8.1311    0.1804 C.3       1 <0>        -0.1153
     20 C16         5.3791   -6.6071    0.1462 C.3       1 <0>        -0.1282
     21 H1         -0.9615    1.8835    0.0259 H         1 <0>         0.1402
     22 H2          1.1378    3.1628    0.0179 H         1 <0>         0.1446
     23 H3          3.3033    2.0059   -0.0372 H         1 <0>         0.1480
     24 H4         -0.9248   -0.5585    0.0004 H         1 <0>         0.1450
     25 H5          0.3655   -2.6858   -0.0714 H         1 <0>         0.1671
     26 H6          4.6092   -4.1931    0.6171 H         1 <0>         0.4090
     27 H7          3.2508   -6.6507   -0.1844 H         1 <0>         0.0902
     28 H8          4.3372   -6.2760    2.6433 H         1 <0>         0.0650
     29 H9          2.6197   -6.4339    2.2037 H         1 <0>         0.0675
     30 H10         3.5448   -8.6025    2.9718 H         1 <0>         0.0657
     31 H11         3.0683   -8.6821    1.2587 H         1 <0>         0.0649
     32 H12         5.8967   -8.1974    2.2987 H         1 <0>         0.0633
     33 H13         5.2901   -9.7242    1.6137 H         1 <0>         0.0648
     34 H14         6.5278   -8.4142   -0.0894 H         1 <0>         0.0683
     35 H15         4.8103   -8.5721   -0.5290 H         1 <0>         0.0657
     36 H16         5.6027   -6.2456   -0.8575 H         1 <0>         0.0689
     37 H17         6.0793   -6.1660    0.8556 H         1 <0>         0.0699
@<TRIPOS>BOND
     1    1    6 ar
     2    1    2 ar
     3    1   21 1
     4    2    3 ar
     5    2   22 1
     6    3    4 ar
     7    3   23 1
     8    4   11 1
     9    4    5 ar
    10    5    6 ar
    11    5    7 1
    12    6   24 1
    13    7    8 2
    14    7   25 1
    15    8    9 1
    16    8   12 1
    17    9   10 2
    18    9   11 1
    19   12   13 2
    20   12   14 am
    21   14   15 1
    22   14   26 1
    23   15   20 1
    24   15   16 1
    25   15   27 1
    26   16   17 1
    27   16   28 1
    28   16   29 1
    29   17   18 1
    30   17   30 1
    31   17   31 1
    32   18   19 1
    33   18   32 1
    34   18   33 1
    35   19   20 1
    36   19   34 1
    37   19   35 1
    38   20   36 1
    39   20   37 1
@<TRIPOS>MOLECULE
CHEMBL1213718
   40    42     0     0     0
SMALL
USER_CHARGES

@<TRIPOS>ATOM
      1 C1         -0.0187    1.5258    0.0104 C.3       1 <0>        -0.1438
      2 C2          0.0021   -0.0041    0.0020 C.3       1 <0>        -0.0356
      3 C3         -1.4399   -0.5512    0.0414 C.3       1 <0>        -0.1204
      4 C4         -1.3344   -1.8028    0.9494 C.3       1 <0>        -0.1181
      5 C5         -0.3060   -1.3518    2.0162 C.3       1 <0>        -0.1320
      6 C6          0.7011   -0.5191    1.2429 C.2       1 <0>         0.1123
      7 N1          1.9161   -0.2943    1.5776 N.2       1 <0>        -0.2318
      8 N2          2.4290   -0.8402    2.7616 N.pl3     1 <0>        -0.5266
      9 C7          3.7439   -0.5970    3.1238 C.2       1 <0>         0.3952
     10 N3          4.4107   -1.0186    4.1833 N.2       1 <0>        -0.5621
     11 C8          5.6790   -0.6861    4.3741 C.2       1 <0>         0.1341
     12 C9          6.3095    0.1079    3.4577 C.2       1 <0>        -0.2339
     13 S1          4.9909    0.3642    2.2776 S.3       1 <0>         0.0433
     14 C10         6.4077   -1.1708    5.5716 C.ar      1 <0>         0.0150
     15 C11         7.7406   -0.8132    5.7713 C.ar      1 <0>        -0.1401
     16 C12         8.4164   -1.2656    6.8863 C.ar      1 <0>        -0.0800
     17 C13         7.7757   -2.0738    7.8072 C.ar      1 <0>        -0.2039
     18 C14         6.4492   -2.4348    7.6157 C.ar      1 <0>         0.1233
     19 C15         5.7610   -1.9799    6.5028 C.ar      1 <0>        -0.1187
     20 O1          5.8237   -3.2300    8.5231 O.3       1 <0>        -0.3173
     21 C16         6.5919   -3.6574    9.6497 C.3       1 <0>         0.0269
     22 H1          1.0039    1.9031    0.0027 H         1 <0>         0.0641
     23 H2         -0.5459    1.8868   -0.8726 H         1 <0>         0.0671
     24 H3         -0.5289    1.8773    0.9072 H         1 <0>         0.0578
     25 H4          0.5137   -0.3646   -0.8904 H         1 <0>         0.0974
     26 H5         -2.1163    0.1832    0.4787 H         1 <0>         0.0778
     27 H6         -1.7710   -0.8305   -0.9588 H         1 <0>         0.0809
     28 H7         -2.2960   -2.0300    1.4096 H         1 <0>         0.0796
     29 H8         -0.9602   -2.6587    0.3877 H         1 <0>         0.0752
     30 H9         -0.7920   -0.7472    2.7819 H         1 <0>         0.0953
     31 H10         0.1808   -2.2174    2.4656 H         1 <0>         0.0762
     32 H11         1.8635   -1.3885    3.3277 H         1 <0>         0.4052
     33 H12         7.3250    0.4756    3.4472 H         1 <0>         0.1994
     34 H13         8.2440   -0.1827    5.0534 H         1 <0>         0.1281
     35 H14         9.4488   -0.9879    7.0398 H         1 <0>         0.1295
     36 H15         8.3090   -2.4255    8.6780 H         1 <0>         0.1289
     37 H16         4.7274   -2.2560    6.3550 H         1 <0>         0.1393
     38 H17         7.4547   -4.2278    9.3059 H         1 <0>         0.0559
     39 H18         6.9319   -2.7859   10.2092 H         1 <0>         0.0558
     40 H19         5.9749   -4.2844   10.2934 H         1 <0>         0.1006
@<TRIPOS>BOND
     1    1    2 1
     2    1   22 1
     3    1   23 1
     4    1   24 1
     5    2    6 1
     6    2    3 1
     7    2   25 1
     8    3    4 1
     9    3   26 1
    10    3   27 1
    11    4    5 1
    12    4   28 1
    13    4   29 1
    14    5    6 1
    15    5   30 1
    16    5   31 1
    17    6    7 2
    18    7    8 1
    19    8    9 1
    20    8   32 1
    21    9   13 1
    22    9   10 2
    23   10   11 1
    24   11   12 2
    25   11   14 1
    26   12   13 1
    27   12   33 1
    28   14   19 ar
    29   14   15 ar
    30   15   16 ar
    31   15   34 1
    32   16   17 ar
    33   16   35 1
    34   17   18 ar
    35   17   36 1
    36   18   19 ar
    37   18   20 1
    38   19   37 1
    39   20   21 1
    40   21   38 1
    41   21   39 1
    42   21   40 1
@<TRIPOS>MOLECULE
CHEMBL1213718__1
   40    42     0     0     0
SMALL
USER_CHARGES

@<TRIPOS>ATOM
      1 C1         -0.0187    1.5258    0.0104 C.3       1 <0>        -0.1438
      2 C2          0.0021   -0.0041    0.0020 C.3       1 <0>        -0.0356
      3 C3          0.7468   -0.5144   -1.2490 C.3       1 <0>        -0.1204
      4 C4          1.5217   -1.7548   -0.7360 C.3       1 <0>        -0.1181
      5 C5          1.9473   -1.3139    0.6865 C.3       1 <0>        -0.1320
      6 C6          0.7633   -0.5180    1.2062 C.2       1 <0>         0.1123
      7 N1          0.4641   -0.3181    2.4348 N.2       1 <0>        -0.2318
      8 N2          1.2660   -0.8592    3.4481 N.pl3     1 <0>        -0.5265
      9 C7          0.9422   -0.6429    4.7776 C.2       1 <0>         0.3952
     10 N3          1.5640   -1.0563    5.8673 N.2       1 <0>        -0.5621
     11 C8          1.1102   -0.7525    7.0745 C.2       1 <0>         0.1341
     12 C9         -0.0225    0.0027    7.1949 C.2       1 <0>        -0.2339
     13 S1         -0.4234    0.2764    5.4740 S.3       1 <0>         0.0432
     14 C10         1.8246   -1.2281    8.2842 C.ar      1 <0>         0.0150
     15 C11         1.3397   -0.9112    9.5525 C.ar      1 <0>        -0.1401
     16 C12         2.0064   -1.3549   10.6765 C.ar      1 <0>        -0.0800
     17 C13         3.1553   -2.1134   10.5491 C.ar      1 <0>        -0.2039
     18 C14         3.6449   -2.4330    9.2903 C.ar      1 <0>         0.1233
     19 C15         2.9786   -1.9975    8.1565 C.ar      1 <0>        -0.1186
     20 O1          4.7751   -3.1781    9.1699 O.3       1 <0>        -0.3173
     21 C16         5.4072   -3.5982   10.3807 C.3       1 <0>         0.0269
     22 H1          1.0039    1.9031    0.0027 H         1 <0>         0.0578
     23 H2         -0.5459    1.8868   -0.8726 H         1 <0>         0.0671
     24 H3         -0.5289    1.8773    0.9072 H         1 <0>         0.0641
     25 H4         -1.0172   -0.3903    0.0129 H         1 <0>         0.0975
     26 H5          0.0384   -0.8001   -2.0265 H         1 <0>         0.0809
     27 H6          1.4380    0.2430   -1.6188 H         1 <0>         0.0778
     28 H7          0.8707   -2.6279   -0.6928 H         1 <0>         0.0752
     29 H8          2.3947   -1.9512   -1.3585 H         1 <0>         0.0796
     30 H9          2.1270   -2.1847    1.3171 H         1 <0>         0.0762
     31 H10         2.8372   -0.6862    0.6402 H         1 <0>         0.0953
     32 H11         2.0480   -1.3854    3.2188 H         1 <0>         0.4052
     33 H12        -0.5324    0.3435    8.0839 H         1 <0>         0.1994
     34 H13         0.4429   -0.3182    9.6553 H         1 <0>         0.1281
     35 H14         1.6297   -1.1087   11.6583 H         1 <0>         0.1295
     36 H15         3.6736   -2.4580   11.4318 H         1 <0>         0.1289
     37 H16         3.3558   -2.2494    7.1764 H         1 <0>         0.1393
     38 H17         5.6942   -2.7228   10.9634 H         1 <0>         0.0558
     39 H18         4.7142   -4.2087   10.9595 H         1 <0>         0.0558
     40 H19         6.2955   -4.1834   10.1427 H         1 <0>         0.1006
@<TRIPOS>BOND
     1    1    2 1
     2    1   22 1
     3    1   23 1
     4    1   24 1
     5    2    6 1
     6    2    3 1
     7    2   25 1
     8    3    4 1
     9    3   26 1
    10    3   27 1
    11    4    5 1
    12    4   28 1
    13    4   29 1
    14    5    6 1
    15    5   30 1
    16    5   31 1
    17    6    7 2
    18    7    8 1
    19    8    9 1
    20    8   32 1
    21    9   13 1
    22    9   10 2
    23   10   11 1
    24   11   12 2
    25   11   14 1
    26   12   13 1
    27   12   33 1
    28   14   19 ar
    29   14   15 ar
    30   15   16 ar
    31   15   34 1
    32   16   17 ar
    33   16   35 1
    34   17   18 ar
    35   17   36 1
    36   18   19 ar
    37   18   20 1
    38   19   37 1
    39   20   21 1
    40   21   38 1
    41   21   39 1
    42   21   40 1
@<TRIPOS>MOLECULE
CHEMBL269538
   29    31     0     0     0
SMALL
USER_CHARGES

@<TRIPOS>ATOM
      1 C1         -0.0184    1.5028    0.0103 C.3       1 <0>        -0.1424
      2 C2          0.0021   -0.0041    0.0020 C.ar      1 <0>         0.1556
      3 C3          0.0057   -0.6865   -1.2084 C.ar      1 <0>         0.1146
      4 C4          0.0254   -2.0919   -1.1857 C.ar      1 <0>         0.0189
      5 C5          0.0408   -2.7431    0.0474 C.ar      1 <0>        -0.0789
      6 C6          0.0361   -1.9836    1.1979 C.ar      1 <0>         0.0838
      7 N1          0.0219   -0.6634    1.1422 N.ar      1 <0>        -0.4304
      8 C7          0.0239   -2.5347   -2.5884 C.ar      1 <0>        -0.1673
      9 C8          0.0375   -3.7874   -3.2002 C.ar      1 <0>         0.0049
     10 C9          0.0309   -3.8808   -4.5734 C.ar      1 <0>        -0.2172
     11 C10         0.0111   -2.7283   -5.3537 C.ar      1 <0>         0.2058
     12 C11        -0.0026   -1.4801   -4.7588 C.ar      1 <0>        -0.1848
     13 C12         0.0034   -1.3698   -3.3723 C.ar      1 <0>         0.2065
     14 N2         -0.0072   -0.2742   -2.5278 N.pl3     1 <0>        -0.5835
     15 H1         -0.0219    0.6508   -2.8196 H         1 <0>         0.4355
     16 O1          0.0057   -2.8305   -6.7086 O.3       1 <0>        -0.3026
     17 C13         0.0210   -4.1488   -7.2598 C.3       1 <0>         0.0197
     18 H2          1.0042    1.8801    0.0026 H         1 <0>         0.1154
     19 H3         -0.5455    1.8639   -0.8728 H         1 <0>         0.1057
     20 H4         -0.5286    1.8543    0.9071 H         1 <0>         0.1048
     21 H5          0.0557   -3.8217    0.1000 H         1 <0>         0.1843
     22 H6          0.0478   -2.4751    2.1595 H         1 <0>         0.2108
     23 H7          0.0536   -4.6834   -2.5974 H         1 <0>         0.1456
     24 H8          0.0415   -4.8513   -5.0470 H         1 <0>         0.1504
     25 H9         -0.0176   -0.5905   -5.3710 H         1 <0>         0.1490
     26 H10         0.9199   -4.6699   -6.9305 H         1 <0>         0.0657
     27 H11        -0.8598   -4.6944   -6.9214 H         1 <0>         0.0657
     28 H12         0.0146   -4.0877   -8.3481 H         1 <0>         0.1130
     29 H13         0.0229   -0.1610    1.9720 H         1 <0>         0.4514
@<TRIPOS>BOND
     1    1    2 1
     2    1   18 1
     3    1   19 1
     4    1   20 1
     5    2    7 ar
     6    2    3 ar
     7    3   14 1
     8    3    4 ar
     9    4    5 ar
    10    4    8 1
    11    5    6 ar
    12    5   21 1
    13    6    7 ar
    14    6   22 1
    15    7   29 1
    16    8   13 ar
    17    8    9 ar
    18    9   10 ar
    19    9   23 1
    20   10   11 ar
    21   10   24 1
    22   11   12 ar
    23   11   16 1
    24   12   13 ar
    25   12   25 1
    26   13   14 1
    27   14   15 1
    28   16   17 1
    29   17   26 1
    30   17   27 1
    31   17   28 1
@<TRIPOS>MOLECULE
CHEMBL6857
   25    27     0     0     0
SMALL
USER_CHARGES

@<TRIPOS>ATOM
      1 C1         -0.0167    1.3837    0.0096 C.ar      1 <0>        -0.1429
      2 C2          1.1501    2.0940    0.0023 C.ar      1 <0>        -0.0519
      3 C3          2.3744    1.4217   -0.0127 C.ar      1 <0>        -0.0914
      4 C4          3.7694    1.8418   -0.0217 C.2       1 <0>        -0.1540
      5 C5          4.5279    0.7267   -0.0374 C.2       1 <0>         0.0753
      6 N1          3.7221   -0.3740   -0.0371 N.pl3     1 <0>        -0.5782
      7 H1          4.0337   -1.2925   -0.0460 H         1 <0>         0.4170
      8 C6          2.3986    0.0130   -0.0213 C.ar      1 <0>         0.1206
      9 C7          1.1980   -0.6897   -0.0126 C.ar      1 <0>        -0.1019
     10 C8          0.0021   -0.0041    0.0020 C.ar      1 <0>        -0.0659
     11 Br1         1.2063   -2.5806   -0.0229 Br        1 <0>        -0.0565
     12 C9          6.0387    0.7608   -0.0541 C.3       1 <0>         0.1236
     13 N2          6.4687    2.1117   -0.4499 N.3       1 <0>        -0.6850
     14 C10         5.8186    3.1452    0.3681 C.3       1 <0>         0.0555
     15 C11         4.3343    3.2393   -0.0130 C.3       1 <0>        -0.0427
     16 H2         -0.9617    1.9063    0.0260 H         1 <0>         0.1335
     17 H3          1.1260    3.1737    0.0078 H         1 <0>         0.1293
     18 H4         -0.9287   -0.5518    0.0086 H         1 <0>         0.1362
     19 H5          6.4221    0.5301    0.9399 H         1 <0>         0.0541
     20 H6          6.4144    0.0312   -0.7714 H         1 <0>         0.0926
     21 H7          7.4733    2.1977   -0.4098 H         1 <0>         0.3547
     22 H8          5.9074    2.8834    1.4224 H         1 <0>         0.0376
     23 H9          6.3011    4.1063    0.1902 H         1 <0>         0.0836
     24 H10         4.2349    3.6835   -1.0034 H         1 <0>         0.0802
     25 H11         3.8033    3.8472    0.7196 H         1 <0>         0.0766
@<TRIPOS>BOND
     1    1   10 ar
     2    1    2 ar
     3    1   16 1
     4    2    3 ar
     5    2   17 1
     6    3    8 ar
     7    3    4 1
     8    4   15 1
     9    4    5 2
    10    5    6 1
    11    5   12 1
    12    6    7 1
    13    6    8 1
    14    8    9 ar
    15    9   10 ar
    16    9   11 1
    17   10   18 1
    18   12   13 1
    19   12   19 1
    20   12   20 1
    21   13   14 1
    22   13   21 1
    23   14   15 1
    24   14   22 1
    25   14   23 1
    26   15   24 1
    27   15   25 1
@<TRIPOS>MOLECULE
CHEMBL6857__1
   26    28     0     0     0
SMALL
USER_CHARGES

@<TRIPOS>ATOM
      1 C1         -0.0167    1.3837    0.0096 C.ar      1 <0>        -0.1271
      2 C2          1.1500    2.0940    0.0023 C.ar      1 <0>        -0.0513
      3 C3          2.3745    1.4219   -0.0128 C.ar      1 <0>        -0.0919
      4 C4          3.7691    1.8413   -0.0212 C.2       1 <0>        -0.1562
      5 C5          4.5282    0.7260   -0.0376 C.2       1 <0>         0.0215
      6 N1          3.7221   -0.3742   -0.0375 N.pl3     1 <0>        -0.5634
      7 H1          4.0336   -1.2928   -0.0472 H         1 <0>         0.4261
      8 C6          2.3986    0.0130   -0.0216 C.ar      1 <0>         0.1334
      9 C7          1.1980   -0.6896   -0.0136 C.ar      1 <0>        -0.1062
     10 C8          0.0021   -0.0041    0.0020 C.ar      1 <0>        -0.0463
     11 Br1         1.2064   -2.5805   -0.0248 Br        1 <0>        -0.0357
     12 C9          6.0385    0.7633   -0.0564 C.3       1 <0>         0.0741
     13 N2          6.4684    2.1069   -0.4741 N.4       1 <0>        -0.4998
     14 C10         5.8260    3.1296    0.3620 C.3       1 <0>        -0.0070
     15 C11         4.3399    3.2364   -0.0100 C.3       1 <0>        -0.0711
     16 H2         -0.9617    1.9063    0.0260 H         1 <0>         0.1435
     17 H3          1.1259    3.1737    0.0078 H         1 <0>         0.1359
     18 H4         -0.9287   -0.5519    0.0087 H         1 <0>         0.1464
     19 H5          6.4224    0.5498    0.9412 H         1 <0>         0.1495
     20 H6          6.4143    0.0227   -0.7624 H         1 <0>         0.1463
     21 H7          7.4704    2.1808   -0.3817 H         1 <0>         0.4405
     22 H8          5.9185    2.8512    1.4118 H         1 <0>         0.1351
     23 H9          6.3118    4.0913    0.1971 H         1 <0>         0.1440
     24 H10         4.2378    3.6853   -0.9980 H         1 <0>         0.1031
     25 H11         3.8167    3.8438    0.7286 H         1 <0>         0.1227
     26 H12         6.2122    2.2547   -1.4387 H         1 <0>         0.4340
@<TRIPOS>BOND
     1    1   10 ar
     2    1    2 ar
     3    1   16 1
     4    2    3 ar
     5    2   17 1
     6    3    8 ar
     7    3    4 1
     8    4   15 1
     9    4    5 2
    10    5    6 1
    11    5   12 1
    12    6    7 1
    13    6    8 1
    14    8    9 ar
    15    9   10 ar
    16    9   11 1
    17   10   18 1
    18   12   13 1
    19   12   19 1
    20   12   20 1
    21   13   14 1
    22   13   21 1
    23   13   26 1
    24   14   15 1
    25   14   22 1
    26   14   23 1
    27   15   24 1
    28   15   25 1
@<TRIPOS>MOLECULE
CHEMBL130217
   24    25     0     0     0
SMALL
USER_CHARGES

@<TRIPOS>ATOM
      1 C1         -0.0170    1.3988    0.0097 C.ar      1 <0>        -0.1325
      2 C2          1.1672    2.1069    0.0022 C.ar      1 <0>         0.1275
      3 C3          2.3791    1.4356   -0.0129 C.ar      1 <0>        -0.1747
      4 C4          2.4070    0.0510   -0.0210 C.ar      1 <0>         0.1408
      5 C5          1.2264   -0.6716   -0.0141 C.ar      1 <0>        -0.1168
      6 C6          0.0021   -0.0041    0.0020 C.ar      1 <0>        -0.0297
      7 C7         -1.1136   -0.9657    0.0070 C.2       1 <0>         0.0152
      8 C8         -2.4254   -0.6558    0.0203 C.2       1 <0>        -0.2019
      9 C9         -3.4295   -1.7217    0.0232 C.2       1 <0>         0.5514
     10 O1         -3.0796   -2.8872    0.0136 O.2       1 <0>        -0.5411
     11 N1         -4.7411   -1.4119    0.0365 N.am      1 <0>        -0.8513
     12 C10        -0.5320   -2.3586   -0.0064 C.3       1 <0>        -0.0860
     13 C11         0.9902   -2.1629   -0.0203 C.3       1 <0>        -0.0848
     14 F1          3.5921   -0.5975   -0.0362 F         1 <0>        -0.1258
     15 F2          1.1450    3.4577    0.0092 F         1 <0>        -0.1261
     16 H1         -0.9599    1.9252    0.0261 H         1 <0>         0.1460
     17 H2          3.3040    1.9932   -0.0187 H         1 <0>         0.1555
     18 H3         -2.7359    0.3785    0.0289 H         1 <0>         0.1357
     19 H4         -5.0200   -0.4829    0.0442 H         1 <0>         0.4028
     20 H5         -5.4062   -2.1180    0.0385 H         1 <0>         0.4051
     21 H6         -0.8351   -2.9030    0.8880 H         1 <0>         0.1032
     22 H7         -0.8518   -2.8928   -0.9010 H         1 <0>         0.1031
     23 H8          1.4165   -2.6057   -0.9205 H         1 <0>         0.0922
     24 H9          1.4338   -2.6159    0.8664 H         1 <0>         0.0922
@<TRIPOS>BOND
     1    1    6 ar
     2    1    2 ar
     3    1   16 1
     4    2    3 ar
     5    2   15 1
     6    3    4 ar
     7    3   17 1
     8    4    5 ar
     9    4   14 1
    10    5   13 1
    11    5    6 ar
    12    6    7 1
    13    7    8 2
    14    7   12 1
    15    8    9 1
    16    8   18 1
    17    9   10 2
    18    9   11 am
    19   11   19 1
    20   11   20 1
    21   12   13 1
    22   12   21 1
    23   12   22 1
    24   13   23 1
    25   13   24 1
@<TRIPOS>MOLECULE
CHEMBL1213841
   43    45     0     0     0
SMALL
USER_CHARGES

@<TRIPOS>ATOM
      1 C1         -0.0571    1.4289   -0.0563 C.3       1 <0>         0.0269
      2 O1         -0.0091    0.0008   -0.0510 O.3       1 <0>        -0.3174
      3 C2          0.3978   -0.6072   -1.1964 C.ar      1 <0>         0.1232
      4 C3          0.7492    0.1573   -2.3008 C.ar      1 <0>        -0.2037
      5 C4          1.1640   -0.4565   -3.4677 C.ar      1 <0>        -0.0801
      6 C5          1.2313   -1.8335   -3.5416 C.ar      1 <0>        -0.1401
      7 C6          0.8803   -2.6084   -2.4374 C.ar      1 <0>         0.0153
      8 C7          0.4672   -1.9888   -1.2598 C.ar      1 <0>        -0.1188
      9 C8          0.9515   -4.0878   -2.5141 C.2       1 <0>         0.1339
     10 C9          1.4616   -4.6969   -3.6261 C.2       1 <0>        -0.2340
     11 S1          1.3000   -6.4172   -3.1659 S.3       1 <0>         0.0418
     12 C10         0.5759   -6.1500   -1.5536 C.2       1 <0>         0.3948
     13 N1          0.5262   -4.8309   -1.5028 N.2       1 <0>        -0.5626
     14 N2          0.1774   -7.0794   -0.6067 N.pl3     1 <0>        -0.5280
     15 N3          0.3259   -8.4487   -0.8632 N.2       1 <0>        -0.2455
     16 C11        -0.1347   -9.3089   -0.0345 C.2       1 <0>         0.1169
     17 C12        -0.9714   -8.8577    1.1588 C.3       1 <0>        -0.1218
     18 C13        -2.1095   -9.8089    1.4130 C.3       1 <0>        -0.1114
     19 C14        -1.6579  -10.9218    2.3690 C.3       1 <0>        -0.1203
     20 C15        -0.9056  -11.9797    1.6892 C.3       1 <0>        -0.1223
     21 C16         0.4124  -11.4744    1.0862 C.3       1 <0>        -0.1161
     22 C17         0.1422  -10.7958   -0.2339 C.3       1 <0>        -0.0562
     23 H1          0.9376    1.8251   -0.2607 H         1 <0>         0.0558
     24 H2         -0.7484    1.7664   -0.8285 H         1 <0>         0.0558
     25 H3         -0.3970    1.7847    0.9163 H         1 <0>         0.1005
     26 H4          0.6979    1.2348   -2.2482 H         1 <0>         0.1289
     27 H5          1.4360    0.1427   -4.3241 H         1 <0>         0.1295
     28 H6          1.5555   -2.3101   -4.4549 H         1 <0>         0.1281
     29 H7          0.1984   -2.5846   -0.4000 H         1 <0>         0.1391
     30 H8          1.8537   -4.2600   -4.5326 H         1 <0>         0.1991
     31 H9         -0.2044   -6.7821    0.2340 H         1 <0>         0.4056
     32 H10        -0.3371   -8.8140    2.0442 H         1 <0>         0.0918
     33 H11        -1.3734   -7.8645    0.9586 H         1 <0>         0.0693
     34 H12        -2.9429   -9.2655    1.8582 H         1 <0>         0.0711
     35 H13        -2.4299  -10.2504    0.4694 H         1 <0>         0.0704
     36 H14        -1.0289  -10.4855    3.1450 H         1 <0>         0.0622
     37 H15        -2.5380  -11.3615    2.8382 H         1 <0>         0.0650
     38 H16        -0.6846  -12.7706    2.4059 H         1 <0>         0.0651
     39 H17        -1.5224  -12.3929    0.8911 H         1 <0>         0.0644
     40 H18         0.8761  -10.7656    1.7722 H         1 <0>         0.0682
     41 H19         1.0854  -12.3174    0.9296 H         1 <0>         0.0769
     42 H20        -0.7222  -11.2601   -0.7087 H         1 <0>         0.0922
     43 H21         1.0111  -10.9141   -0.8813 H         1 <0>         0.0864
@<TRIPOS>BOND
     1    1    2 1
     2    1   23 1
     3    1   24 1
     4    1   25 1
     5    2    3 1
     6    3    8 ar
     7    3    4 ar
     8    4    5 ar
     9    4   26 1
    10    5    6 ar
    11    5   27 1
    12    6    7 ar
    13    6   28 1
    14    7    8 ar
    15    7    9 1
    16    8   29 1
    17    9   13 1
    18    9   10 2
    19   10   11 1
    20   10   30 1
    21   11   12 1
    22   12   13 2
    23   12   14 1
    24   14   15 1
    25   14   31 1
    26   15   16 2
    27   16   22 1
    28   16   17 1
    29   17   18 1
    30   17   32 1
    31   17   33 1
    32   18   19 1
    33   18   34 1
    34   18   35 1
    35   19   20 1
    36   19   36 1
    37   19   37 1
    38   20   21 1
    39   20   38 1
    40   20   39 1
    41   21   22 1
    42   21   40 1
    43   21   41 1
    44   22   42 1
    45   22   43 1
@<TRIPOS>MOLECULE
CHEMBL31059
   30    31     0     0     0
SMALL
USER_CHARGES

@<TRIPOS>ATOM
      1 C1         -0.0187    1.5258    0.0104 C.3       1 <0>        -0.1842
      2 C2          0.0021   -0.0041    0.0020 C.3       1 <0>         0.0312
      3 C3          0.7182   -0.4975   -1.2568 C.3       1 <0>        -0.0943
      4 C4          0.8473   -1.9981   -1.2057 C.ar      1 <0>        -0.1759
      5 C5          2.0026   -2.5783   -0.7149 C.ar      1 <0>        -0.0410
      6 C6          2.1240   -3.9504   -0.6668 C.ar      1 <0>        -0.1657
      7 C7          1.0818   -4.7665   -1.1131 C.ar      1 <0>         0.2291
      8 C8         -0.0720   -4.1761   -1.6033 C.ar      1 <0>        -0.1551
      9 C9         -0.1920   -2.7990   -1.6445 C.ar      1 <0>        -0.0011
     10 Cl1        -1.6465   -2.0740   -2.2546 Cl        1 <0>        -0.0763
     11 C10        -1.0332   -5.2682   -2.0158 C.3       1 <0>        -0.0868
     12 C11        -0.2886   -6.5763   -1.7020 C.3       1 <0>         0.1093
     13 N1          1.0033   -6.1595   -1.1503 N.pl3     1 <0>        -0.7294
     14 N2         -1.3761   -0.5125    0.0124 N.4       1 <0>        -0.6402
     15 H1          1.0039    1.9031    0.0027 H         1 <0>         0.1089
     16 H2         -0.5459    1.8868   -0.8726 H         1 <0>         0.0827
     17 H3         -0.5289    1.8773    0.9072 H         1 <0>         0.0845
     18 H4          0.5293   -0.3651    0.8851 H         1 <0>         0.1440
     19 H5          0.1430   -0.2121   -2.1375 H         1 <0>         0.0984
     20 H6          1.7103   -0.0491   -1.3098 H         1 <0>         0.1242
     21 H7          2.8128   -1.9540   -0.3683 H         1 <0>         0.1431
     22 H8          3.0293   -4.3967   -0.2826 H         1 <0>         0.1357
     23 H9         -1.9529   -5.2051   -1.4342 H         1 <0>         0.0928
     24 H10        -1.2508   -5.2007   -3.0817 H         1 <0>         0.0953
     25 H11        -0.8431   -7.1600   -0.9672 H         1 <0>         0.0803
     26 H12        -0.1415   -7.1557   -2.6134 H         1 <0>         0.0807
     27 H13         1.7023   -6.7637   -0.8547 H         1 <0>         0.4228
     28 H14        -1.8641   -0.1783   -0.8050 H         1 <0>         0.4267
     29 H15        -1.3624   -1.5214    0.0069 H         1 <0>         0.4285
     30 H16        -1.8484   -0.1871    0.8426 H         1 <0>         0.4318
@<TRIPOS>BOND
     1    1    2 1
     2    1   15 1
     3    1   16 1
     4    1   17 1
     5    2    3 1
     6    2   14 1
     7    2   18 1
     8    3    4 1
     9    3   19 1
    10    3   20 1
    11    4    9 ar
    12    4    5 ar
    13    5    6 ar
    14    5   21 1
    15    6    7 ar
    16    6   22 1
    17    7   13 1
    18    7    8 ar
    19    8    9 ar
    20    8   11 1
    21    9   10 1
    22   11   12 1
    23   11   23 1
    24   11   24 1
    25   12   13 1
    26   12   25 1
    27   12   26 1
    28   13   27 1
    29   14   28 1
    30   14   29 1
    31   14   30 1
@<TRIPOS>MOLECULE
CHEMBL31059__1
   30    31     0     0     0
SMALL
USER_CHARGES

@<TRIPOS>ATOM
      1 C1         -0.0187    1.5258    0.0104 C.3       1 <0>        -0.1829
      2 C2          0.0021   -0.0041    0.0020 C.3       1 <0>         0.0293
      3 C3         -1.4333   -0.5336    0.0129 C.3       1 <0>        -0.0922
      4 C4         -1.4136   -2.0361    0.1285 C.ar      1 <0>        -0.1872
      5 C5         -1.4784   -2.8198   -1.0089 C.ar      1 <0>        -0.0732
      6 C6         -1.4606   -4.1943   -0.9069 C.ar      1 <0>        -0.1735
      7 C7         -1.3770   -4.8072    0.3455 C.ar      1 <0>         0.2296
      8 C8         -1.3124   -4.0136    1.4797 C.ar      1 <0>        -0.1587
      9 C9         -1.3248   -2.6350    1.3725 C.ar      1 <0>         0.0349
     10 Cl1        -1.2360   -1.6540    2.8019 Cl        1 <0>        -0.0543
     11 C10        -1.2289   -4.9134    2.6922 C.3       1 <0>        -0.0878
     12 C11        -1.2532   -6.3391    2.1171 C.3       1 <0>         0.1097
     13 N1         -1.3457   -6.1656    0.6650 N.pl3     1 <0>        -0.7299
     14 N2          0.6897   -0.4778   -1.2066 N.4       1 <0>        -0.6364
     15 H1          1.0039    1.9031    0.0027 H         1 <0>         0.0839
     16 H2         -0.5459    1.8868   -0.8726 H         1 <0>         0.0838
     17 H3         -0.5289    1.8773    0.9072 H         1 <0>         0.1075
     18 H4          0.5293   -0.3651    0.8851 H         1 <0>         0.1398
     19 H5         -1.9701   -0.1109    0.8621 H         1 <0>         0.1202
     20 H6         -1.9334   -0.2470   -0.9122 H         1 <0>         0.1003
     21 H7         -1.5436   -2.3533   -1.9808 H         1 <0>         0.1339
     22 H8         -1.5119   -4.8002   -1.7994 H         1 <0>         0.1329
     23 H9         -0.2992   -4.7373    3.2332 H         1 <0>         0.0937
     24 H10        -2.0865   -4.7521    3.3453 H         1 <0>         0.0950
     25 H11        -0.3360   -6.8675    2.3771 H         1 <0>         0.0797
     26 H12        -2.1219   -6.8823    2.4891 H         1 <0>         0.0801
     27 H13        -1.3808   -6.8891    0.0199 H         1 <0>         0.4214
     28 H14         1.6363   -0.1286   -1.2138 H         1 <0>         0.4355
     29 H15         0.7033   -1.4867   -1.2121 H         1 <0>         0.4333
     30 H16         0.2017   -0.1436   -2.0240 H         1 <0>         0.4315
@<TRIPOS>BOND
     1    1    2 1
     2    1   15 1
     3    1   16 1
     4    1   17 1
     5    2    3 1
     6    2   14 1
     7    2   18 1
     8    3    4 1
     9    3   19 1
    10    3   20 1
    11    4    9 ar
    12    4    5 ar
    13    5    6 ar
    14    5   21 1
    15    6    7 ar
    16    6   22 1
    17    7   13 1
    18    7    8 ar
    19    8    9 ar
    20    8   11 1
    21    9   10 1
    22   11   12 1
    23   11   23 1
    24   11   24 1
    25   12   13 1
    26   12   25 1
    27   12   26 1
    28   13   27 1
    29   14   28 1
    30   14   29 1
    31   14   30 1
@<TRIPOS>MOLECULE
CHEMBL544509
   24    24     0     0     0
SMALL
USER_CHARGES

@<TRIPOS>ATOM
      1 C1         -0.0167    1.3791    0.0096 C.ar      1 <0>        -0.1181
      2 C2          1.1670    2.0882    0.0021 C.ar      1 <0>        -0.0740
      3 C3          2.3848    1.4069   -0.0132 C.ar      1 <0>        -0.0527
      4 C4          2.3966    0.0111   -0.0208 C.ar      1 <0>        -0.0518
      5 C5          1.2062   -0.6857   -0.0132 C.ar      1 <0>        -0.1800
      6 C6          0.0021   -0.0041    0.0020 C.ar      1 <0>        -0.0683
      7 C7          1.2170   -2.1926   -0.0219 C.3       1 <0>         0.5083
      8 F1          1.2332   -2.6665    1.2943 F         1 <0>        -0.1746
      9 F2          0.0717   -2.6634   -0.6730 F         1 <0>        -0.1761
     10 F3          2.3561   -2.6469   -0.6951 F         1 <0>        -0.1756
     11 C8          3.6560    2.1597   -0.0218 C.2       1 <0>        -0.1504
     12 C9          4.4857    2.0745    1.0129 C.2       1 <0>         0.0644
     13 F4          4.1667    1.2995    2.0725 F         1 <0>        -0.1443
     14 C10         4.0118    3.0242   -1.2038 C.3       1 <0>         0.1147
     15 N1          4.6553    2.2011   -2.2364 N.3       1 <0>        -0.8469
     16 H1         -0.9598    1.9050    0.0260 H         1 <0>         0.1387
     17 H2          1.1510    3.1681    0.0077 H         1 <0>         0.1340
     18 H3          3.3358   -0.5221   -0.0330 H         1 <0>         0.1371
     19 H4         -0.9272   -0.5544    0.0080 H         1 <0>         0.1379
     20 H5          5.4149    2.6248    1.0066 H         1 <0>         0.1578
     21 H6          3.1062    3.4745   -1.6102 H         1 <0>         0.0421
     22 H7          4.6972    3.8099   -0.8860 H         1 <0>         0.0858
     23 H8          4.0650    1.4269   -2.5015 H         1 <0>         0.3442
     24 H9          4.9037    2.7582   -3.0401 H         1 <0>         0.3478
@<TRIPOS>BOND
     1    1    6 ar
     2    1    2 ar
     3    1   16 1
     4    2    3 ar
     5    2   17 1
     6    3    4 ar
     7    3   11 1
     8    4    5 ar
     9    4   18 1
    10    5    6 ar
    11    5    7 1
    12    6   19 1
    13    7    8 1
    14    7    9 1
    15    7   10 1
    16   11   12 2
    17   11   14 1
    18   12   13 1
    19   12   20 1
    20   14   15 1
    21   14   21 1
    22   14   22 1
    23   15   23 1
    24   15   24 1
@<TRIPOS>MOLECULE
CHEMBL544509__1
   25    25     0     0     0
SMALL
USER_CHARGES

@<TRIPOS>ATOM
      1 C1         -0.0167    1.3791    0.0096 C.ar      1 <0>        -0.1107
      2 C2          1.1670    2.0882    0.0021 C.ar      1 <0>        -0.0671
      3 C3          2.3848    1.4069   -0.0132 C.ar      1 <0>        -0.0852
      4 C4          2.3966    0.0111   -0.0208 C.ar      1 <0>        -0.0582
      5 C5          1.2062   -0.6857   -0.0132 C.ar      1 <0>        -0.1728
      6 C6          0.0021   -0.0041    0.0020 C.ar      1 <0>        -0.0509
      7 C7          1.2170   -2.1926   -0.0219 C.3       1 <0>         0.5063
      8 F1          1.2332   -2.6665    1.2943 F         1 <0>        -0.1695
      9 F2          0.0717   -2.6634   -0.6730 F         1 <0>        -0.1707
     10 F3          2.3561   -2.6469   -0.6951 F         1 <0>        -0.1776
     11 C8          3.6560    2.1597   -0.0218 C.2       1 <0>        -0.2282
     12 C9          4.4857    2.0745    1.0129 C.2       1 <0>         0.1346
     13 F4          4.1667    1.2995    2.0725 F         1 <0>        -0.1143
     14 C10         4.0118    3.0242   -1.2038 C.3       1 <0>         0.0604
     15 N1          4.6553    2.2011   -2.2364 N.4       1 <0>        -0.6386
     16 H1         -0.9598    1.9050    0.0260 H         1 <0>         0.1464
     17 H2          1.1510    3.1681    0.0077 H         1 <0>         0.1387
     18 H3          3.3358   -0.5221   -0.0330 H         1 <0>         0.1371
     19 H4         -0.9272   -0.5544    0.0080 H         1 <0>         0.1458
     20 H5          5.4149    2.6248    1.0066 H         1 <0>         0.1695
     21 H6          3.1062    3.4745   -1.6102 H         1 <0>         0.1460
     22 H7          4.6972    3.8099   -0.8860 H         1 <0>         0.1459
     23 H8          4.8935    2.7799   -3.0278 H         1 <0>         0.4412
     24 H9          5.4936    1.7842   -1.8601 H         1 <0>         0.4347
     25 H10         4.0208    1.4738   -2.5305 H         1 <0>         0.4373
@<TRIPOS>BOND
     1    1    6 ar
     2    1    2 ar
     3    1   16 1
     4    2    3 ar
     5    2   17 1
     6    3    4 ar
     7    3   11 1
     8    4    5 ar
     9    4   18 1
    10    5    6 ar
    11    5    7 1
    12    6   19 1
    13    7    8 1
    14    7    9 1
    15    7   10 1
    16   11   12 2
    17   11   14 1
    18   12   13 1
    19   12   20 1
    20   14   15 1
    21   14   21 1
    22   14   22 1
    23   15   23 1
    24   15   24 1
    25   15   25 1
@<TRIPOS>MOLECULE
CHEMBL1213777
   39    40     0     0     0
SMALL
USER_CHARGES

@<TRIPOS>ATOM
      1 C1         -0.0187    1.5258    0.0104 C.3       1 <0>        -0.1484
      2 C2          0.0021   -0.0041    0.0020 C.3       1 <0>        -0.1315
      3 C3          0.7074   -0.4901   -1.2379 C.2       1 <0>         0.1158
      4 N1          1.9724   -0.6864   -1.2193 N.2       1 <0>        -0.2421
      5 N2          2.7009   -0.4495   -0.0463 N.pl3     1 <0>        -0.5280
      6 C4          4.0697   -0.6619   -0.0262 C.2       1 <0>         0.3947
      7 N3          4.9255   -0.5049    0.9678 N.2       1 <0>        -0.5625
      8 C5          6.2164   -0.7583    0.8097 C.2       1 <0>         0.1340
      9 C6          6.6714   -1.1903   -0.4045 C.2       1 <0>        -0.2340
     10 S1          5.1457   -1.2288   -1.3361 S.3       1 <0>         0.0423
     11 C7          7.1590   -0.5745    1.9399 C.ar      1 <0>         0.0151
     12 C8          8.5176   -0.8364    1.7670 C.ar      1 <0>        -0.1401
     13 C9          9.3927   -0.6646    2.8202 C.ar      1 <0>        -0.0800
     14 C10         8.9262   -0.2333    4.0483 C.ar      1 <0>        -0.2039
     15 C11         7.5753    0.0293    4.2290 C.ar      1 <0>         0.1233
     16 C12         6.6907   -0.1341    3.1755 C.ar      1 <0>        -0.1187
     17 O1          7.1211    0.4521    5.4381 O.3       1 <0>        -0.3173
     18 C13         8.0896    0.6045    6.4777 C.3       1 <0>         0.0269
     19 C14        -0.0762   -0.7450   -2.4996 C.3       1 <0>        -0.0650
     20 C15        -1.0514   -1.9012   -2.2695 C.3       1 <0>        -0.1493
     21 H1          1.0039    1.9031    0.0027 H         1 <0>         0.0543
     22 H2         -0.5459    1.8868   -0.8726 H         1 <0>         0.0667
     23 H3         -0.5289    1.8773    0.9072 H         1 <0>         0.0691
     24 H4          0.5293   -0.3651    0.8851 H         1 <0>         0.0715
     25 H5         -1.0205   -0.3814    0.0098 H         1 <0>         0.0963
     26 H6          2.2469   -0.1366    0.7518 H         1 <0>         0.4054
     27 H7          7.6747   -1.4426   -0.7145 H         1 <0>         0.1992
     28 H8          8.8849   -1.1741    0.8091 H         1 <0>         0.1281
     29 H9         10.4447   -0.8679    2.6850 H         1 <0>         0.1295
     30 H10         9.6150   -0.1007    4.8695 H         1 <0>         0.1289
     31 H11         5.6400    0.0745    3.3133 H         1 <0>         0.1392
     32 H12         8.5747   -0.3533    6.6657 H         1 <0>         0.0558
     33 H13         8.8373    1.3369    6.1732 H         1 <0>         0.0558
     34 H14         7.5956    0.9463    7.3872 H         1 <0>         0.1005
     35 H15        -0.6335    0.1523   -2.7687 H         1 <0>         0.0925
     36 H16         0.6091   -1.0029   -3.3071 H         1 <0>         0.0873
     37 H17        -1.7367   -1.6432   -1.4620 H         1 <0>         0.0603
     38 H18        -1.6182   -2.0855   -3.1821 H         1 <0>         0.0695
     39 H19        -0.4942   -2.7984   -2.0004 H         1 <0>         0.0588
@<TRIPOS>BOND
     1    1    2 1
     2    1   21 1
     3    1   22 1
     4    1   23 1
     5    2    3 1
     6    2   24 1
     7    2   25 1
     8    3    4 2
     9    3   19 1
    10    4    5 1
    11    5    6 1
    12    5   26 1
    13    6   10 1
    14    6    7 2
    15    7    8 1
    16    8    9 2
    17    8   11 1
    18    9   10 1
    19    9   27 1
    20   11   16 ar
    21   11   12 ar
    22   12   13 ar
    23   12   28 1
    24   13   14 ar
    25   13   29 1
    26   14   15 ar
    27   14   30 1
    28   15   16 ar
    29   15   17 1
    30   16   31 1
    31   17   18 1
    32   18   32 1
    33   18   33 1
    34   18   34 1
    35   19   20 1
    36   19   35 1
    37   19   36 1
    38   20   37 1
    39   20   38 1
    40   20   39 1
@<TRIPOS>MOLECULE
CHEMBL488075
   38    40     0     0     0
SMALL
USER_CHARGES

@<TRIPOS>ATOM
      1 C1         -0.0184    1.5028    0.0103 C.3       1 <0>        -0.1027
      2 C2          0.0021   -0.0041    0.0020 C.ar      1 <0>        -0.1304
      3 C3          0.0058   -0.6934   -1.2002 C.ar      1 <0>         0.1802
      4 C4          0.0248   -2.0864   -1.2176 C.ar      1 <0>        -0.2209
      5 C5          0.0397   -2.7929   -0.0496 C.ar      1 <0>        -0.0232
      6 C6          0.0364   -2.1123    1.1732 C.ar      1 <0>        -0.1811
      7 C7          0.0230   -0.7066    1.1969 C.ar      1 <0>         0.1795
      8 O1          0.0234   -0.0593    2.3816 O.3       1 <0>        -0.2642
      9 C8          0.0546   -0.7291    3.5413 C.2       1 <0>         0.5121
     10 O2          0.0655   -0.1006    4.5845 O.2       1 <0>        -0.4588
     11 C9          0.0748   -2.1451    3.5939 C.2       1 <0>        -0.2147
     12 C10         0.0514   -2.8512    2.4426 C.2       1 <0>         0.0346
     13 C11         0.0513   -4.3540    2.3988 C.3       1 <0>        -0.0919
     14 C12         0.4954   -4.9323    3.7413 C.3       1 <0>        -0.1226
     15 C13        -0.3303   -4.2663    4.8488 C.3       1 <0>        -0.1216
     16 C14         0.1156   -2.8014    4.9484 C.3       1 <0>        -0.0609
     17 O3         -0.0097   -0.0057   -2.3704 O.3       1 <0>        -0.2917
     18 C15        -0.0048   -0.7747   -3.5749 C.3       1 <0>         0.1012
     19 C16        -0.0237    0.1524   -4.7628 C.2       1 <0>        -0.1384
     20 C17         1.0010    0.1919   -5.5800 C.2       1 <0>        -0.1065
     21 Br1        -1.5252    1.2588   -5.0750 Br        1 <0>        -0.0464
     22 H1          1.0042    1.8801    0.0026 H         1 <0>         0.0732
     23 H2         -0.5455    1.8639   -0.8728 H         1 <0>         0.0775
     24 H3         -0.5286    1.8543    0.9071 H         1 <0>         0.0731
     25 H4          0.0275   -2.6110   -2.1617 H         1 <0>         0.1403
     26 H5          0.0535   -3.8726   -0.0691 H         1 <0>         0.1435
     27 H6         -0.9547   -4.7066    2.1709 H         1 <0>         0.0941
     28 H7          0.7344   -4.6906    1.6190 H         1 <0>         0.0888
     29 H8          0.3245   -6.0087    3.7524 H         1 <0>         0.0762
     30 H9          1.5542   -4.7262    3.8980 H         1 <0>         0.0705
     31 H10        -1.3906   -4.3269    4.6032 H         1 <0>         0.0698
     32 H11        -0.1435   -4.7679    5.7983 H         1 <0>         0.0759
     33 H12         1.1297   -2.7459    5.3441 H         1 <0>         0.0827
     34 H13        -0.5615   -2.2765    5.6224 H         1 <0>         0.0833
     35 H14         0.8937   -1.3907   -3.6090 H         1 <0>         0.0859
     36 H15        -0.8860   -1.4157   -3.6002 H         1 <0>         0.0840
     37 H16         1.8585   -0.4400   -5.4018 H         1 <0>         0.1258
     38 H17         0.9874    0.8563   -6.4314 H         1 <0>         0.1238
@<TRIPOS>BOND
     1    1    2 1
     2    1   22 1
     3    1   23 1
     4    1   24 1
     5    2    7 ar
     6    2    3 ar
     7    3    4 ar
     8    3   17 1
     9    4    5 ar
    10    4   25 1
    11    5    6 ar
    12    5   26 1
    13    6   12 1
    14    6    7 ar
    15    7    8 1
    16    8    9 1
    17    9   10 2
    18    9   11 1
    19   11   16 1
    20   11   12 2
    21   12   13 1
    22   13   14 1
    23   13   27 1
    24   13   28 1
    25   14   15 1
    26   14   29 1
    27   14   30 1
    28   15   16 1
    29   15   31 1
    30   15   32 1
    31   16   33 1
    32   16   34 1
    33   17   18 1
    34   18   19 1
    35   18   35 1
    36   18   36 1
    37   19   20 2
    38   19   21 1
    39   20   37 1
    40   20   38 1
@<TRIPOS>MOLECULE
CHEMBL601205
   32    34     0     0     0
SMALL
USER_CHARGES

@<TRIPOS>ATOM
      1 C1         -0.0184    1.5028    0.0103 C.3       1 <0>        -0.1230
      2 C2          0.0021   -0.0041    0.0020 C.ar      1 <0>        -0.0147
      3 C3          0.0056   -0.6831   -1.2065 C.ar      1 <0>        -0.1659
      4 C4          0.0213   -2.0613   -1.2271 C.ar      1 <0>        -0.0207
      5 C5          0.0351   -2.7687   -0.0236 C.ar      1 <0>        -0.2591
      6 C6          0.0375   -2.0815    1.2009 C.ar      1 <0>         0.1851
      7 C7          0.0228   -0.6932    1.1978 C.ar      1 <0>        -0.1637
      8 O1          0.0653   -2.7556    2.3740 O.3       1 <0>        -0.3023
      9 C8         -0.3881   -4.1088    2.3990 C.3       1 <0>         0.1463
     10 H1         -1.4612   -4.1363    2.2099 H         1 <0>         0.0882
     11 C9          0.3442   -4.9113    1.3136 C.3       1 <0>        -0.1929
     12 C10         0.0457   -4.2422   -0.0164 C.2       1 <0>         0.4017
     13 O2         -0.1731   -4.8869   -1.0202 O.2       1 <0>        -0.4422
     14 C11        -0.1002   -4.7106    3.7503 C.ar      1 <0>        -0.0928
     15 C12         1.0399   -4.3447    4.4412 C.ar      1 <0>        -0.0910
     16 C13         1.3041   -4.8967    5.6807 C.ar      1 <0>        -0.1203
     17 C14         0.4279   -5.8143    6.2296 C.ar      1 <0>        -0.1105
     18 C15        -0.7126   -6.1795    5.5391 C.ar      1 <0>        -0.1185
     19 C16        -0.9789   -5.6243    4.3015 C.ar      1 <0>        -0.1033
     20 H2          1.0042    1.8801    0.0026 H         1 <0>         0.0802
     21 H3         -0.5455    1.8639   -0.8728 H         1 <0>         0.0741
     22 H4         -0.5286    1.8543    0.9071 H         1 <0>         0.0732
     23 H5         -0.0042   -0.1308   -2.1346 H         1 <0>         0.1330
     24 H6          0.0225   -2.5906   -2.1685 H         1 <0>         0.1371
     25 H7          0.0234   -0.1518    2.1323 H         1 <0>         0.1390
     26 H8          1.4176   -4.8986    1.5031 H         1 <0>         0.1160
     27 H9         -0.0197   -5.9387    1.3024 H         1 <0>         0.1140
     28 H10         1.7244   -3.6278    4.0123 H         1 <0>         0.1283
     29 H11         2.1951   -4.6113    6.2201 H         1 <0>         0.1263
     30 H12         0.6346   -6.2461    7.1976 H         1 <0>         0.1253
     31 H13        -1.3970   -6.8967    5.9678 H         1 <0>         0.1274
     32 H14        -1.8719   -5.9068    3.7637 H         1 <0>         0.1258
@<TRIPOS>BOND
     1    1    2 1
     2    1   20 1
     3    1   21 1
     4    1   22 1
     5    2    7 ar
     6    2    3 ar
     7    3    4 ar
     8    3   23 1
     9    4    5 ar
    10    4   24 1
    11    5   12 1
    12    5    6 ar
    13    6    7 ar
    14    6    8 1
    15    7   25 1
    16    8    9 1
    17    9   10 1
    18    9   11 1
    19    9   14 1
    20   11   12 1
    21   11   26 1
    22   11   27 1
    23   12   13 2
    24   14   19 ar
    25   14   15 ar
    26   15   16 ar
    27   15   28 1
    28   16   17 ar
    29   16   29 1
    30   17   18 ar
    31   17   30 1
    32   18   19 ar
    33   18   31 1
    34   19   32 1
@<TRIPOS>MOLECULE
CHEMBL57286
   12    11     0     0     0
SMALL
USER_CHARGES

@<TRIPOS>ATOM
      1 C1         -0.0157    1.3058    0.0092 C.2       1 <0>        -0.0983
      2 C2          0.0021   -0.0041    0.0020 C.2       1 <0>        -0.2491
      3 C3          1.3172   -0.7397   -0.0145 C.3       1 <0>         0.0316
      4 N1          1.3676   -1.6781    1.1146 N.4       1 <0>        -0.6360
      5 H1          0.9122    1.8585    0.0033 H         1 <0>         0.1127
      6 H2         -0.9582    1.8330    0.0166 H         1 <0>         0.1236
      7 H3         -0.9258   -0.5567    0.0079 H         1 <0>         0.1350
      8 H4          1.4134   -1.2911   -0.9498 H         1 <0>         0.1382
      9 H5          2.1349   -0.0241    0.0711 H         1 <0>         0.1328
     10 H6          1.2785   -1.1677    1.9804 H         1 <0>         0.4357
     11 H7          0.6106   -2.3406    1.0353 H         1 <0>         0.4359
     12 H8          2.2481   -2.1707    1.1035 H         1 <0>         0.4380
@<TRIPOS>BOND
     1    1    2 2
     2    1    5 1
     3    1    6 1
     4    2    3 1
     5    2    7 1
     6    3    4 1
     7    3    8 1
     8    3    9 1
     9    4   10 1
    10    4   11 1
    11    4   12 1
@<TRIPOS>MOLECULE
CHEMBL513549
   30    32     0     0     0
SMALL
USER_CHARGES

@<TRIPOS>ATOM
      1 C1          2.3575    1.8403    3.0906 C.ar      1 <0>        -0.1419
      2 C2          2.7789    2.3880    1.8867 C.ar      1 <0>        -0.0434
      3 C3          3.1310    1.5746    0.8297 C.ar      1 <0>        -0.1363
      4 C4          3.0711    0.1946    0.9702 C.ar      1 <0>         0.1552
      5 C5          2.6712   -0.3602    2.2001 C.ar      1 <0>        -0.1755
      6 C6          2.2961    0.4862    3.2537 C.ar      1 <0>        -0.0363
      7 C7          2.6686   -1.7684    2.3724 C.2       1 <0>         0.1012
      8 C8          3.2475   -2.5488    1.3807 C.2       1 <0>        -0.2883
      9 C9          3.8540   -1.8476    0.2344 C.2       1 <0>         0.5288
     10 O1          4.7446   -2.3606   -0.4170 O.2       1 <0>        -0.4374
     11 O2          3.3869   -0.6147   -0.0693 O.3       1 <0>        -0.2651
     12 C10         3.2558   -4.0184    1.4705 C.2       1 <0>         0.5970
     13 O3          2.7487   -4.5721    2.4274 O.2       1 <0>        -0.5086
     14 N1          3.8253   -4.7501    0.4924 N.am      1 <0>        -0.6741
     15 C11         3.9300   -6.1368    0.6280 C.ar      1 <0>         0.1718
     16 C12         2.9248   -6.9794    0.1543 C.ar      1 <0>         0.0618
     17 C13         3.0657   -8.3475    0.3078 C.ar      1 <0>         0.3295
     18 N2          4.1351   -8.8565    0.8946 N.ar      1 <0>        -0.4837
     19 C14         5.1085   -8.0906    1.3563 C.ar      1 <0>         0.3295
     20 C15         5.0450   -6.7135    1.2354 C.ar      1 <0>         0.0620
     21 F1          6.0468   -5.9381    1.7048 F         1 <0>        -0.0907
     22 F2          6.1811   -8.6596    1.9488 F         1 <0>        -0.0753
     23 F3          2.0980   -9.1730   -0.1474 F         1 <0>        -0.0755
     24 F4          1.8282   -6.4671   -0.4458 F         1 <0>        -0.0919
     25 H1          2.0801    2.4909    3.9068 H         1 <0>         0.1420
     26 H2          2.8313    3.4611    1.7765 H         1 <0>         0.1464
     27 H3          3.4521    2.0102   -0.1050 H         1 <0>         0.1500
     28 H4          1.9594    0.0681    4.1909 H         1 <0>         0.1467
     29 H5          2.2295   -2.2202    3.2496 H         1 <0>         0.1702
     30 H6          4.1624   -4.3141   -0.3058 H         1 <0>         0.4316
@<TRIPOS>BOND
     1    1    6 ar
     2    1    2 ar
     3    1   25 1
     4    2    3 ar
     5    2   26 1
     6    3    4 ar
     7    3   27 1
     8    4   11 1
     9    4    5 ar
    10    5    6 ar
    11    5    7 1
    12    6   28 1
    13    7    8 2
    14    7   29 1
    15    8    9 1
    16    8   12 1
    17    9   10 2
    18    9   11 1
    19   12   13 2
    20   12   14 am
    21   14   15 1
    22   14   30 1
    23   15   20 ar
    24   15   16 ar
    25   16   17 ar
    26   16   24 1
    27   17   18 ar
    28   17   23 1
    29   18   19 ar
    30   19   20 ar
    31   19   22 1
    32   20   21 1
@<TRIPOS>MOLECULE
CHEMBL52887
   37    40     0     0     0
SMALL
USER_CHARGES

@<TRIPOS>ATOM
      1 C1         -0.0178    1.4608    0.0101 C.3       1 <0>         0.0910
      2 N1          0.0021   -0.0041    0.0020 N.pl3     1 <0>        -0.1323
      3 N2          0.0073   -0.7436   -1.0534 N.2       1 <0>        -0.2900
      4 C2          0.0270   -2.0031   -0.6632 C.2       1 <0>         0.1979
      5 N3          0.0334   -1.9896    0.6776 N.2       1 <0>        -0.2657
      6 N4          0.0226   -0.7541    1.0480 N.2       1 <0>        -0.0491
      7 C3          0.0396   -3.2015   -1.5374 C.ar      1 <0>         0.0119
      8 C4          0.0365   -3.0548   -2.9250 C.ar      1 <0>        -0.0400
      9 C5          0.0471   -4.1653   -3.7346 C.ar      1 <0>        -0.0697
     10 C6          0.0612   -5.4507   -3.1726 C.ar      1 <0>        -0.0600
     11 C7          0.0660   -5.5916   -1.7840 C.ar      1 <0>        -0.6074
     12 C8          0.0604   -4.4768   -0.9744 C.ar      1 <0>         0.0111
     13 S1          0.0886   -7.1948   -1.0539 S.o2      1 <0>         2.5846
     14 O1          1.1345   -7.1886   -0.0920 O.2       1 <0>        -0.9148
     15 O2         -1.2560   -7.5062   -0.7155 O.2       1 <0>        -0.9133
     16 C9          0.5678   -8.3312   -2.3118 C.ar      1 <0>        -0.6489
     17 C10         0.9906   -9.5981   -1.9606 C.ar      1 <0>         0.0173
     18 C11         1.3713  -10.5023   -2.9340 C.ar      1 <0>        -0.1923
     19 C12         1.3312  -10.1397   -4.2740 C.ar      1 <0>         0.1751
     20 C13         0.9091   -8.8742   -4.6366 C.ar      1 <0>        -0.1043
     21 C14         0.5205   -7.9551   -3.6536 C.ar      1 <0>        -0.0361
     22 C15         0.0679   -6.6180   -4.0644 C.2       1 <0>         0.4172
     23 O3         -0.3229   -6.4701   -5.2060 O.2       1 <0>        -0.4009
     24 O4          1.7078  -11.0296   -5.2298 O.3       1 <0>        -0.3049
     25 C16         2.1334  -12.3189   -4.7842 C.3       1 <0>         0.0194
     26 H1          1.0048    1.8381    0.0023 H         1 <0>         0.1067
     27 H2         -0.5450    1.8219   -0.8730 H         1 <0>         0.1146
     28 H3         -0.5280    1.8123    0.9069 H         1 <0>         0.1176
     29 H4          0.0253   -2.0678   -3.3632 H         1 <0>         0.1545
     30 H5          0.0443   -4.0479   -4.8082 H         1 <0>         0.1567
     31 H6          0.0679   -4.5911    0.0995 H         1 <0>         0.1589
     32 H7          1.0242   -9.8836   -0.9196 H         1 <0>         0.1509
     33 H8          1.7006  -11.4916   -2.6523 H         1 <0>         0.1509
     34 H9          0.8789   -8.5938   -5.6791 H         1 <0>         0.1560
     35 H10         2.9975  -12.2098   -4.1288 H         1 <0>         0.0638
     36 H11         1.3221  -12.8009   -4.2386 H         1 <0>         0.0639
     37 H12         2.4053  -12.9295   -5.6452 H         1 <0>         0.1097
@<TRIPOS>BOND
     1    1    2 1
     2    1   26 1
     3    1   27 1
     4    1   28 1
     5    2    6 1
     6    2    3 1
     7    3    4 2
     8    4    5 1
     9    4    7 1
    10    5    6 2
    11    7   12 ar
    12    7    8 ar
    13    8    9 ar
    14    8   29 1
    15    9   10 ar
    16    9   30 1
    17   10   22 1
    18   10   11 ar
    19   11   12 ar
    20   11   13 1
    21   12   31 1
    22   13   14 2
    23   13   15 2
    24   13   16 1
    25   16   21 ar
    26   16   17 ar
    27   17   18 ar
    28   17   32 1
    29   18   19 ar
    30   18   33 1
    31   19   20 ar
    32   19   24 1
    33   20   21 ar
    34   20   34 1
    35   21   22 1
    36   22   23 2
    37   24   25 1
    38   25   35 1
    39   25   36 1
    40   25   37 1
@<TRIPOS>MOLECULE
CHEMBL17092
   39    41     0     0     0
SMALL
USER_CHARGES

@<TRIPOS>ATOM
      1 C1         -0.0167    1.3781    0.0096 C.ar      1 <0>        -0.1068
      2 C2          1.1709    2.0855    0.0021 C.ar      1 <0>        -0.1229
      3 C3          2.3773    1.4107   -0.0130 C.ar      1 <0>        -0.0942
      4 C4          2.3960    0.0285   -0.0201 C.ar      1 <0>        -0.1022
      5 C5          1.2084   -0.6789   -0.0117 C.ar      1 <0>        -0.0942
      6 C6          0.0021   -0.0041    0.0020 C.ar      1 <0>        -0.1229
      7 C7          3.7112   -0.7071   -0.0376 C.3       1 <0>         0.0992
      8 O1          4.1410   -0.9464    1.3041 O.3       1 <0>        -0.3017
      9 C8          5.3182   -1.6047    1.4665 C.ar      1 <0>         0.1663
     10 C9          6.0462   -2.0064    0.3542 C.ar      1 <0>        -0.2138
     11 C10         7.2409   -2.6750    0.5149 C.ar      1 <0>        -0.0274
     12 C11         7.7188   -2.9478    1.7977 C.ar      1 <0>        -0.0847
     13 C12         6.9844   -2.5420    2.9132 C.ar      1 <0>        -0.0201
     14 C13         5.7932   -1.8693    2.7443 C.ar      1 <0>        -0.1541
     15 C14         8.9995   -3.6651    1.9744 C.2       1 <0>         0.3068
     16 N1          9.5388   -3.9776    3.1173 N.2       1 <0>        -0.2641
     17 N2         10.7421   -4.6484    2.8531 N.am      1 <0>        -0.4572
     18 C15        10.8706   -4.7076    1.5107 C.2       1 <0>         0.6084
     19 O2         11.7901   -5.2167    0.8973 O.2       1 <0>        -0.4759
     20 O3          9.7949   -4.1065    0.9757 O.3       1 <0>        -0.2659
     21 C16        11.6798   -5.1819    3.8442 C.3       1 <0>         0.1631
     22 C17        12.7102   -4.1086    4.2010 C.3       1 <0>        -0.0452
     23 C18        13.6524   -4.6447    5.1968 C.1       1 <0>         0.2054
     24 N3         14.3796   -5.0585    5.9653 N.1       1 <0>        -0.4149
     25 H1         -0.9591    1.9053    0.0259 H         1 <0>         0.1255
     26 H2          1.1563    3.1654    0.0076 H         1 <0>         0.1266
     27 H3          3.3051    1.9634   -0.0196 H         1 <0>         0.1250
     28 H4          1.2231   -1.7588   -0.0176 H         1 <0>         0.1250
     29 H5         -0.9258   -0.5567    0.0082 H         1 <0>         0.1266
     30 H6          3.5884   -1.6586   -0.5549 H         1 <0>         0.0767
     31 H7          4.4573   -0.1052   -0.5563 H         1 <0>         0.0768
     32 H8          5.6758   -1.7949   -0.6380 H         1 <0>         0.1404
     33 H9          7.8062   -2.9876   -0.3506 H         1 <0>         0.1405
     34 H10         7.3510   -2.7514    3.9072 H         1 <0>         0.1480
     35 H11         5.2263   -1.5515    3.6069 H         1 <0>         0.1451
     36 H12        11.1335   -5.4737    4.7412 H         1 <0>         0.1134
     37 H13        12.1898   -6.0519    3.4304 H         1 <0>         0.1123
     38 H14        13.2565   -3.8169    3.3041 H         1 <0>         0.1166
     39 H15        12.2001   -3.2387    4.6149 H         1 <0>         0.1205
@<TRIPOS>BOND
     1    1    6 ar
     2    1    2 ar
     3    1   25 1
     4    2    3 ar
     5    2   26 1
     6    3    4 ar
     7    3   27 1
     8    4    5 ar
     9    4    7 1
    10    5    6 ar
    11    5   28 1
    12    6   29 1
    13    7    8 1
    14    7   30 1
    15    7   31 1
    16    8    9 1
    17    9   14 ar
    18    9   10 ar
    19   10   11 ar
    20   10   32 1
    21   11   12 ar
    22   11   33 1
    23   12   13 ar
    24   12   15 1
    25   13   14 ar
    26   13   34 1
    27   14   35 1
    28   15   20 1
    29   15   16 2
    30   16   17 1
    31   17   18 am
    32   17   21 1
    33   18   19 2
    34   18   20 1
    35   21   22 1
    36   21   36 1
    37   21   37 1
    38   22   23 1
    39   22   38 1
    40   22   39 1
    41   23   24 3
@<TRIPOS>MOLECULE
CHEMBL425113
   39    40     0     0     0
SMALL
USER_CHARGES

@<TRIPOS>ATOM
      1 C1         -0.1500    1.6472   -0.5338 C.3       1 <0>        -0.1648
      2 C2         -0.0419    0.1466   -0.2558 C.3       1 <0>         0.1401
      3 H1         -1.0410   -0.2762   -0.1498 H         1 <0>         0.1047
      4 C3          0.7462   -0.0773    1.0364 C.3       1 <0>        -0.0935
      5 C4          0.8542   -1.5779    1.3144 C.3       1 <0>        -0.1108
      6 C5          1.6424   -1.8018    2.6065 C.3       1 <0>        -0.1183
      7 C6          0.9201   -1.1184    3.7694 C.3       1 <0>        -0.1214
      8 C7          0.8121    0.3823    3.4913 C.3       1 <0>        -0.1181
      9 C8          0.0239    0.6061    2.1992 C.3       1 <0>        -0.1146
     10 N1          0.6496   -0.5078   -1.3692 N.am      1 <0>        -0.6106
     11 C9          2.0171   -0.1128   -1.7158 C.3       1 <0>         0.0583
     12 C10         0.0278   -1.4733   -2.0747 C.2       1 <0>         0.5915
     13 O1         -1.1439   -1.7237   -1.8617 O.2       1 <0>        -0.5256
     14 C11         0.7634   -2.2222   -3.0991 C.2       1 <0>        -0.0597
     15 C12         0.2242   -3.1169   -3.9989 C.2       1 <0>        -0.1040
     16 C13         1.2775   -3.5937   -4.7855 C.2       1 <0>        -0.2105
     17 C14         2.4164   -2.9952   -4.3619 C.2       1 <0>         0.0189
     18 N2          2.1168   -2.1553   -3.3412 N.pl3     1 <0>        -0.5473
     19 H2          2.7508   -1.6009   -2.8601 H         1 <0>         0.4187
     20 H3          0.8491    2.0699   -0.6397 H         1 <0>         0.0579
     21 H4         -0.7115    1.8067   -1.4543 H         1 <0>         0.0605
     22 H5         -0.6645    2.1341    0.2946 H         1 <0>         0.0744
     23 H6          1.7453    0.3454    0.9304 H         1 <0>         0.0716
     24 H7         -0.1449   -2.0007    1.4203 H         1 <0>         0.0636
     25 H8          1.3688   -2.0648    0.4860 H         1 <0>         0.0565
     26 H9          1.7193   -2.8709    2.8046 H         1 <0>         0.0608
     27 H10         2.6415   -1.3791    2.5006 H         1 <0>         0.0591
     28 H11        -0.0790   -1.5411    3.8753 H         1 <0>         0.0622
     29 H12         1.4816   -1.2779    4.6899 H         1 <0>         0.0609
     30 H13         0.2975    0.8691    4.3198 H         1 <0>         0.0633
     31 H14         1.8112    0.8050    3.3854 H         1 <0>         0.0606
     32 H15        -0.0530    1.6752    2.0011 H         1 <0>         0.0675
     33 H16        -0.9752    0.1834    2.3052 H         1 <0>         0.0656
     34 H17         2.7237   -0.7900   -1.2359 H         1 <0>         0.0583
     35 H18         2.1459   -0.1598   -2.7971 H         1 <0>         0.0735
     36 H19         2.1993    0.9055   -1.3721 H         1 <0>         0.0878
     37 H20        -0.8156   -3.3971   -4.0806 H         1 <0>         0.1474
     38 H21         1.1972   -4.3119   -5.5881 H         1 <0>         0.1442
     39 H22         3.4018   -3.1578   -4.7729 H         1 <0>         0.1715
@<TRIPOS>BOND
     1    1    2 1
     2    1   20 1
     3    1   21 1
     4    1   22 1
     5    2    3 1
     6    2    4 1
     7    2   10 1
     8    4    9 1
     9    4    5 1
    10    4   23 1
    11    5    6 1
    12    5   24 1
    13    5   25 1
    14    6    7 1
    15    6   26 1
    16    6   27 1
    17    7    8 1
    18    7   28 1
    19    7   29 1
    20    8    9 1
    21    8   30 1
    22    8   31 1
    23    9   32 1
    24    9   33 1
    25   10   11 1
    26   10   12 am
    27   11   34 1
    28   11   35 1
    29   11   36 1
    30   12   13 2
    31   12   14 1
    32   14   18 1
    33   14   15 2
    34   15   16 1
    35   15   37 1
    36   16   17 2
    37   16   38 1
    38   17   18 1
    39   17   39 1
    40   18   19 1
@<TRIPOS>MOLECULE
CHEMBL258420
   31    32     0     0     0
SMALL
USER_CHARGES

@<TRIPOS>ATOM
      1 C1          1.9991   -2.1896   -2.2345 C.3       1 <0>         0.0217
      2 N1          1.9506   -0.8155   -1.7172 N.3       1 <0>        -0.5341
      3 C2          2.8775   -0.6442   -0.5905 C.3       1 <0>         0.1635
      4 C3          4.2623   -0.7900   -1.0677 C.1       1 <0>        -0.1884
      5 C4          5.3668   -0.9063   -1.4484 C.1       1 <0>        -0.1859
      6 C5          0.5817   -0.4454   -1.3338 C.3       1 <0>         0.0892
      7 C6         -0.2276   -0.1613   -2.5729 C.ar      1 <0>        -0.0174
      8 C7         -1.1561   -1.0554   -3.0253 C.ar      1 <0>        -0.1680
      9 C8         -1.8929   -0.7715   -4.1728 C.ar      1 <0>         0.1282
     10 N2         -1.7225    0.3419   -4.8437 N.ar      1 <0>        -0.4608
     11 C9         -0.8312    1.2575   -4.4550 C.ar      1 <0>         0.1009
     12 C10        -0.0521    1.0351   -3.2930 C.ar      1 <0>        -0.0702
     13 C11         0.8801    2.0037   -2.8859 C.ar      1 <0>        -0.0904
     14 C12         1.0227    3.1492   -3.6081 C.ar      1 <0>        -0.1037
     15 C13         0.2561    3.3773   -4.7479 C.ar      1 <0>        -0.1308
     16 C14        -0.6518    2.4537   -5.1814 C.ar      1 <0>         0.1309
     17 O1         -1.3902    2.6930   -6.2962 O.3       1 <0>        -0.4822
     18 H1          1.7989   -2.8903   -1.4239 H         1 <0>         0.0325
     19 H2          1.2469   -2.3112   -3.0139 H         1 <0>         0.0709
     20 H3          2.9875   -2.3869   -2.6495 H         1 <0>         0.0726
     21 H4          2.7446    0.3477   -0.1584 H         1 <0>         0.0989
     22 H5          2.6726   -1.4008    0.1669 H         1 <0>         0.0619
     23 H6          6.3546   -1.0104   -1.7888 H         1 <0>         0.2181
     24 H7          0.1245   -1.2664   -0.7815 H         1 <0>         0.0590
     25 H8          0.6085    0.4448   -0.7054 H         1 <0>         0.0934
     26 H9         -1.3183   -1.9816   -2.4941 H         1 <0>         0.1366
     27 H10        -2.6236   -1.4874   -4.5190 H         1 <0>         0.1608
     28 H11         1.4811    1.8407   -2.0035 H         1 <0>         0.1338
     29 H12         1.7405    3.8918   -3.2921 H         1 <0>         0.1316
     30 H13         0.3881    4.2943   -5.3029 H         1 <0>         0.1361
     31 H14        -2.2223    3.1550   -6.1250 H         1 <0>         0.3915
@<TRIPOS>BOND
     1    1    2 1
     2    1   18 1
     3    1   19 1
     4    1   20 1
     5    2    3 1
     6    2    6 1
     7    3    4 1
     8    3   21 1
     9    3   22 1
    10    4    5 3
    11    5   23 1
    12    6    7 1
    13    6   24 1
    14    6   25 1
    15    7   12 ar
    16    7    8 ar
    17    8    9 ar
    18    8   26 1
    19    9   10 ar
    20    9   27 1
    21   10   11 ar
    22   11   16 ar
    23   11   12 ar
    24   12   13 ar
    25   13   14 ar
    26   13   28 1
    27   14   15 ar
    28   14   29 1
    29   15   16 ar
    30   15   30 1
    31   16   17 1
    32   17   31 1
@<TRIPOS>MOLECULE
CHEMBL598393
   37    38     0     0     0
SMALL
USER_CHARGES

@<TRIPOS>ATOM
      1 C1         -0.0187    1.5258    0.0104 C.3       1 <0>        -0.1532
      2 C2          0.0021   -0.0041    0.0020 C.3       1 <0>        -0.1217
      3 C3          0.7182   -0.4975   -1.2568 C.3       1 <0>        -0.1206
      4 C4          0.7390   -2.0273   -1.2652 C.3       1 <0>         0.0575
      5 O1          1.4078   -2.4882   -2.4409 O.3       1 <0>        -0.3133
      6 C5          1.5136   -3.8333   -2.6034 C.ar      1 <0>         0.1437
      7 C6          0.9795   -4.6920   -1.6536 C.ar      1 <0>        -0.2084
      8 C7          1.0880   -6.0589   -1.8213 C.ar      1 <0>        -0.0545
      9 C8          1.7286   -6.5714   -2.9343 C.ar      1 <0>        -0.1159
     10 C9          2.2621   -5.7177   -3.8820 C.ar      1 <0>        -0.0568
     11 C10         2.1509   -4.3500   -3.7221 C.ar      1 <0>        -0.1499
     12 C11         1.8459   -8.0630   -3.1144 C.3       1 <0>        -0.0204
     13 C12         3.3197   -8.4570   -3.2107 C.3       1 <0>         0.1156
     14 N1          3.4997   -9.8398   -3.5906 N.am      1 <0>        -0.7134
     15 C13         2.6999  -10.6503   -4.2526 C.2       1 <0>         0.5219
     16 O2          3.1498  -11.7344   -4.5579 O.2       1 <0>        -0.5444
     17 C14         1.2848  -10.3627   -4.6659 C.3       1 <0>        -0.1080
     18 S1          1.0246   -8.5621   -4.6614 S.3       1 <0>        -0.2207
     19 H1          1.0039    1.9031    0.0027 H         1 <0>         0.0564
     20 H2         -0.5459    1.8868   -0.8726 H         1 <0>         0.0565
     21 H3         -0.5289    1.8773    0.9072 H         1 <0>         0.0580
     22 H4          0.5293   -0.3651    0.8851 H         1 <0>         0.0650
     23 H5         -1.0205   -0.3814    0.0098 H         1 <0>         0.0651
     24 H6          0.1910   -0.1364   -2.1398 H         1 <0>         0.0749
     25 H7          1.7408   -0.1202   -1.2645 H         1 <0>         0.0748
     26 H8          1.2661   -2.3884   -0.3821 H         1 <0>         0.0637
     27 H9         -0.2836   -2.4046   -1.2575 H         1 <0>         0.0638
     28 H10         0.4797   -4.2922   -0.7837 H         1 <0>         0.1317
     29 H11         0.6724   -6.7278   -1.0822 H         1 <0>         0.1282
     30 H12         2.7624   -6.1204   -4.7503 H         1 <0>         0.1356
     31 H13         2.5639   -3.6836   -4.4648 H         1 <0>         0.1355
     32 H14         1.3822   -8.5732   -2.2702 H         1 <0>         0.1054
     33 H15         3.8068   -7.8219   -3.9506 H         1 <0>         0.0832
     34 H16         3.7924   -8.2930   -2.2423 H         1 <0>         0.0945
     35 H17         4.3425  -10.2328   -3.3147 H         1 <0>         0.4041
     36 H18         1.1103  -10.7543   -5.6680 H         1 <0>         0.1431
     37 H19         0.5966  -10.8328   -3.9634 H         1 <0>         0.1230
@<TRIPOS>BOND
     1    1    2 1
     2    1   19 1
     3    1   20 1
     4    1   21 1
     5    2    3 1
     6    2   22 1
     7    2   23 1
     8    3    4 1
     9    3   24 1
    10    3   25 1
    11    4    5 1
    12    4   26 1
    13    4   27 1
    14    5    6 1
    15    6   11 ar
    16    6    7 ar
    17    7    8 ar
    18    7   28 1
    19    8    9 ar
    20    8   29 1
    21    9   10 ar
    22    9   12 1
    23   10   11 ar
    24   10   30 1
    25   11   31 1
    26   12   18 1
    27   12   13 1
    28   12   32 1
    29   13   14 1
    30   13   33 1
    31   13   34 1
    32   14   15 am
    33   14   35 1
    34   15   16 2
    35   15   17 1
    36   17   18 1
    37   17   36 1
    38   17   37 1
@<TRIPOS>MOLECULE
CHEMBL598393__1
   37    38     0     0     0
SMALL
USER_CHARGES

@<TRIPOS>ATOM
      1 C1         -0.0187    1.5258    0.0104 C.3       1 <0>        -0.1532
      2 C2          0.0021   -0.0041    0.0020 C.3       1 <0>        -0.1217
      3 C3          0.7182   -0.4975   -1.2568 C.3       1 <0>        -0.1206
      4 C4          0.7390   -2.0273   -1.2652 C.3       1 <0>         0.0575
      5 O1          1.4078   -2.4882   -2.4409 O.3       1 <0>        -0.3133
      6 C5          1.5136   -3.8333   -2.6034 C.ar      1 <0>         0.1438
      7 C6          0.9795   -4.6920   -1.6536 C.ar      1 <0>        -0.2085
      8 C7          1.0880   -6.0589   -1.8213 C.ar      1 <0>        -0.0544
      9 C8          1.7286   -6.5714   -2.9343 C.ar      1 <0>        -0.1159
     10 C9          2.2621   -5.7177   -3.8820 C.ar      1 <0>        -0.0567
     11 C10         2.1509   -4.3500   -3.7221 C.ar      1 <0>        -0.1500
     12 C11         1.8459   -8.0630   -3.1144 C.3       1 <0>        -0.0204
     13 C12         1.1859   -8.4776   -4.4293 C.3       1 <0>         0.1156
     14 N1          1.4418   -9.8597   -4.7659 N.am      1 <0>        -0.7134
     15 C13         2.4301  -10.6529   -4.4067 C.2       1 <0>         0.5219
     16 O2          2.4807  -11.7406   -4.9409 O.2       1 <0>        -0.5444
     17 C14         3.5007  -10.3413   -3.4003 C.3       1 <0>        -0.1080
     18 S1          3.6027   -8.5372   -3.1889 S.3       1 <0>        -0.2207
     19 H1          1.0039    1.9031    0.0027 H         1 <0>         0.0565
     20 H2         -0.5459    1.8868   -0.8726 H         1 <0>         0.0564
     21 H3         -0.5289    1.8773    0.9072 H         1 <0>         0.0580
     22 H4          0.5293   -0.3651    0.8851 H         1 <0>         0.0651
     23 H5         -1.0205   -0.3814    0.0098 H         1 <0>         0.0650
     24 H6          0.1910   -0.1364   -2.1398 H         1 <0>         0.0748
     25 H7          1.7408   -0.1202   -1.2645 H         1 <0>         0.0749
     26 H8          1.2661   -2.3884   -0.3821 H         1 <0>         0.0638
     27 H9         -0.2836   -2.4046   -1.2575 H         1 <0>         0.0636
     28 H10         0.4797   -4.2922   -0.7837 H         1 <0>         0.1317
     29 H11         0.6724   -6.7278   -1.0822 H         1 <0>         0.1282
     30 H12         2.7624   -6.1204   -4.7503 H         1 <0>         0.1356
     31 H13         2.5639   -3.6836   -4.4648 H         1 <0>         0.1355
     32 H14         1.3619   -8.5734   -2.2818 H         1 <0>         0.1053
     33 H15         0.1094   -8.3287   -4.3457 H         1 <0>         0.0945
     34 H16         1.5664   -7.8435   -5.2301 H         1 <0>         0.0832
     35 H17         0.7814  -10.2675   -5.3477 H         1 <0>         0.4041
     36 H18         3.2522  -10.8071   -2.4468 H         1 <0>         0.1229
     37 H19         4.4581  -10.7219   -3.7561 H         1 <0>         0.1431
@<TRIPOS>BOND
     1    1    2 1
     2    1   19 1
     3    1   20 1
     4    1   21 1
     5    2    3 1
     6    2   22 1
     7    2   23 1
     8    3    4 1
     9    3   24 1
    10    3   25 1
    11    4    5 1
    12    4   26 1
    13    4   27 1
    14    5    6 1
    15    6   11 ar
    16    6    7 ar
    17    7    8 ar
    18    7   28 1
    19    8    9 ar
    20    8   29 1
    21    9   10 ar
    22    9   12 1
    23   10   11 ar
    24   10   30 1
    25   11   31 1
    26   12   18 1
    27   12   13 1
    28   12   32 1
    29   13   14 1
    30   13   33 1
    31   13   34 1
    32   14   15 am
    33   14   35 1
    34   15   16 2
    35   15   17 1
    36   17   18 1
    37   17   36 1
    38   17   37 1
@<TRIPOS>MOLECULE
CHEMBL598394
   38    40     0     0     0
SMALL
USER_CHARGES

@<TRIPOS>ATOM
      1 C1         -0.0167    1.3781    0.0096 C.ar      1 <0>        -0.1079
      2 C2          1.1709    2.0855    0.0021 C.ar      1 <0>        -0.1227
      3 C3          2.3773    1.4107   -0.0130 C.ar      1 <0>        -0.0948
      4 C4          2.3960    0.0285   -0.0201 C.ar      1 <0>        -0.1004
      5 C5          1.2084   -0.6789   -0.0117 C.ar      1 <0>        -0.0950
      6 C6          0.0021   -0.0041    0.0020 C.ar      1 <0>        -0.1230
      7 C7          3.7112   -0.7071   -0.0376 C.3       1 <0>         0.1017
      8 O1          4.1410   -0.9464    1.3041 O.3       1 <0>        -0.3062
      9 C8          5.3186   -1.6049    1.4665 C.ar      1 <0>         0.1429
     10 C9          6.0483   -2.0075    0.3574 C.ar      1 <0>        -0.2089
     11 C10         7.2453   -2.6763    0.5252 C.ar      1 <0>        -0.0541
     12 C11         7.7160   -2.9451    1.7972 C.ar      1 <0>        -0.1155
     13 C12         6.9904   -2.5454    2.9042 C.ar      1 <0>        -0.0565
     14 C13         5.7959   -1.8708    2.7418 C.ar      1 <0>        -0.1486
     15 C14         9.0219   -3.6754    1.9773 C.3       1 <0>        -0.0205
     16 C15         8.7905   -4.9572    2.7773 C.3       1 <0>         0.1156
     17 N1         10.0261   -5.5991    3.1646 N.am      1 <0>        -0.7134
     18 C16        11.2314   -5.0938    3.3284 C.2       1 <0>         0.5219
     19 O2         12.0760   -5.8313    3.7905 O.2       1 <0>        -0.5443
     20 C17        11.6616   -3.6930    2.9983 C.3       1 <0>        -0.1081
     21 S1         10.1877   -2.6304    2.9078 S.3       1 <0>        -0.2206
     22 H1         -0.9591    1.9053    0.0259 H         1 <0>         0.1254
     23 H2          1.1563    3.1654    0.0076 H         1 <0>         0.1264
     24 H3          3.3051    1.9634   -0.0196 H         1 <0>         0.1245
     25 H4          1.2231   -1.7588   -0.0176 H         1 <0>         0.1243
     26 H5         -0.9258   -0.5567    0.0082 H         1 <0>         0.1263
     27 H6          3.5884   -1.6586   -0.5549 H         1 <0>         0.0732
     28 H7          4.4573   -0.1052   -0.5563 H         1 <0>         0.0733
     29 H8          5.6808   -1.7984   -0.6363 H         1 <0>         0.1321
     30 H9          7.8138   -2.9899   -0.3379 H         1 <0>         0.1285
     31 H10         7.3600   -2.7569    3.8967 H         1 <0>         0.1357
     32 H11         5.2316   -1.5549    3.6068 H         1 <0>         0.1354
     33 H12         9.4442   -3.9201    1.0027 H         1 <0>         0.1055
     34 H13         8.2227   -4.7145    3.6755 H         1 <0>         0.0832
     35 H14         8.2078   -5.6508    2.1710 H         1 <0>         0.0946
     36 H15         9.9568   -6.5523    3.3303 H         1 <0>         0.4041
     37 H16        12.3307   -3.3238    3.7755 H         1 <0>         0.1431
     38 H17        12.1762   -3.6861    2.0374 H         1 <0>         0.1230
@<TRIPOS>BOND
     1    1    6 ar
     2    1    2 ar
     3    1   22 1
     4    2    3 ar
     5    2   23 1
     6    3    4 ar
     7    3   24 1
     8    4    5 ar
     9    4    7 1
    10    5    6 ar
    11    5   25 1
    12    6   26 1
    13    7    8 1
    14    7   27 1
    15    7   28 1
    16    8    9 1
    17    9   14 ar
    18    9   10 ar
    19   10   11 ar
    20   10   29 1
    21   11   12 ar
    22   11   30 1
    23   12   13 ar
    24   12   15 1
    25   13   14 ar
    26   13   31 1
    27   14   32 1
    28   15   21 1
    29   15   16 1
    30   15   33 1
    31   16   17 1
    32   16   34 1
    33   16   35 1
    34   17   18 am
    35   17   36 1
    36   18   19 2
    37   18   20 1
    38   20   21 1
    39   20   37 1
    40   20   38 1
@<TRIPOS>MOLECULE
CHEMBL598394__1
   38    40     0     0     0
SMALL
USER_CHARGES

@<TRIPOS>ATOM
      1 C1         -0.0167    1.3781    0.0096 C.ar      1 <0>        -0.1079
      2 C2          1.1709    2.0855    0.0021 C.ar      1 <0>        -0.1230
      3 C3          2.3773    1.4107   -0.0130 C.ar      1 <0>        -0.0950
      4 C4          2.3960    0.0285   -0.0201 C.ar      1 <0>        -0.1004
      5 C5          1.2084   -0.6789   -0.0117 C.ar      1 <0>        -0.0948
      6 C6          0.0021   -0.0041    0.0020 C.ar      1 <0>        -0.1227
      7 C7          3.7112   -0.7071   -0.0376 C.3       1 <0>         0.1017
      8 O1          4.1410   -0.9464    1.3041 O.3       1 <0>        -0.3063
      9 C8          5.3186   -1.6049    1.4665 C.ar      1 <0>         0.1430
     10 C9          6.0483   -2.0075    0.3574 C.ar      1 <0>        -0.2090
     11 C10         7.2453   -2.6763    0.5252 C.ar      1 <0>        -0.0540
     12 C11         7.7160   -2.9451    1.7972 C.ar      1 <0>        -0.1156
     13 C12         6.9904   -2.5454    2.9042 C.ar      1 <0>        -0.0564
     14 C13         5.7959   -1.8708    2.7418 C.ar      1 <0>        -0.1488
     15 C14         9.0219   -3.6754    1.9773 C.3       1 <0>        -0.0206
     16 C15         9.9888   -2.8118    2.7872 C.3       1 <0>         0.1156
     17 N1         11.1818   -3.5301    3.1741 N.am      1 <0>        -0.7134
     18 C16        11.3829   -4.8224    3.3297 C.2       1 <0>         0.5219
     19 O2         12.4517   -5.1581    3.7944 O.2       1 <0>        -0.5444
     20 C17        10.4171   -5.9209    2.9880 C.3       1 <0>        -0.1081
     21 S1          8.7398   -5.2225    2.8958 S.3       1 <0>        -0.2205
     22 H1         -0.9591    1.9053    0.0259 H         1 <0>         0.1254
     23 H2          1.1563    3.1654    0.0076 H         1 <0>         0.1263
     24 H3          3.3051    1.9634   -0.0196 H         1 <0>         0.1243
     25 H4          1.2231   -1.7588   -0.0176 H         1 <0>         0.1245
     26 H5         -0.9258   -0.5567    0.0082 H         1 <0>         0.1264
     27 H6          3.5884   -1.6586   -0.5549 H         1 <0>         0.0733
     28 H7          4.4573   -0.1052   -0.5563 H         1 <0>         0.0732
     29 H8          5.6808   -1.7984   -0.6363 H         1 <0>         0.1321
     30 H9          7.8138   -2.9899   -0.3379 H         1 <0>         0.1285
     31 H10         7.3600   -2.7569    3.8967 H         1 <0>         0.1357
     32 H11         5.2316   -1.5549    3.6068 H         1 <0>         0.1354
     33 H12         9.4556   -3.8997    1.0028 H         1 <0>         0.1055
     34 H13        10.2762   -1.9478    2.1881 H         1 <0>         0.0946
     35 H14         9.4809   -2.4620    3.6859 H         1 <0>         0.0832
     36 H15        11.9567   -2.9724    3.3461 H         1 <0>         0.4041
     37 H16        10.6848   -6.3560    2.0251 H         1 <0>         0.1230
     38 H17        10.4506   -6.6897    3.7600 H         1 <0>         0.1431
@<TRIPOS>BOND
     1    1    6 ar
     2    1    2 ar
     3    1   22 1
     4    2    3 ar
     5    2   23 1
     6    3    4 ar
     7    3   24 1
     8    4    5 ar
     9    4    7 1
    10    5    6 ar
    11    5   25 1
    12    6   26 1
    13    7    8 1
    14    7   27 1
    15    7   28 1
    16    8    9 1
    17    9   14 ar
    18    9   10 ar
    19   10   11 ar
    20   10   29 1
    21   11   12 ar
    22   11   30 1
    23   12   13 ar
    24   12   15 1
    25   13   14 ar
    26   13   31 1
    27   14   32 1
    28   15   21 1
    29   15   16 1
    30   15   33 1
    31   16   17 1
    32   16   34 1
    33   16   35 1
    34   17   18 am
    35   17   36 1
    36   18   19 2
    37   18   20 1
    38   20   21 1
    39   20   37 1
    40   20   38 1
@<TRIPOS>MOLECULE
CHEMBL19004
   41    43     0     0     0
SMALL
USER_CHARGES

@<TRIPOS>ATOM
      1 C1         -0.0184    1.5028    0.0103 C.3       1 <0>        -0.1300
      2 C2          0.0021   -0.0041    0.0020 C.2       1 <0>         0.0278
      3 C3          0.0061   -0.6954   -1.1674 C.2       1 <0>        -0.2289
      4 C4          0.0259   -2.1051   -1.1488 C.2       1 <0>         0.5161
      5 O1          0.0297   -2.7124   -2.2045 O.2       1 <0>        -0.4573
      6 O2          0.0411   -2.7950    0.0025 O.3       1 <0>        -0.2688
      7 C5          0.0380   -2.1693    1.1991 C.ar      1 <0>         0.1872
      8 C6          0.0243   -0.7629    1.2543 C.ar      1 <0>        -0.1821
      9 C7          0.0261   -0.1105    2.4922 C.ar      1 <0>        -0.0136
     10 C8          0.0465   -0.8421    3.6444 C.ar      1 <0>        -0.2253
     11 C9          0.0655   -2.2344    3.5961 C.ar      1 <0>         0.1870
     12 C10         0.0533   -2.8969    2.3791 C.ar      1 <0>        -0.1687
     13 O3          0.0862   -2.9478    4.7507 O.3       1 <0>        -0.2992
     14 C11         0.0871   -2.2057    5.9719 C.3       1 <0>         0.1593
     15 C12         0.1112   -3.1589    7.1389 C.2       1 <0>        -0.0598
     16 N1          1.1444   -3.6628    7.7731 N.2       1 <0>        -0.2447
     17 N2          0.9447   -4.4554    8.7398 N.2       1 <0>        -0.2720
     18 C13        -0.2894   -4.7489    9.0782 C.2       1 <0>        -0.0115
     19 S1         -1.1792   -3.8470    7.9711 S.3       1 <0>         0.2293
     20 C14        -0.7816   -5.6541   10.1778 C.3       1 <0>        -0.0019
     21 C15        -0.2527   -7.0711    9.9470 C.3       1 <0>        -0.1441
     22 C16        -0.2804   -5.1363   11.5275 C.3       1 <0>        -0.1438
     23 C17        -0.0109    0.0426   -2.4812 C.3       1 <0>        -0.0974
     24 H1          1.0042    1.8801    0.0026 H         1 <0>         0.0918
     25 H2         -0.5455    1.8639   -0.8728 H         1 <0>         0.0878
     26 H3         -0.5286    1.8543    0.9071 H         1 <0>         0.0795
     27 H4          0.0118    0.9686    2.5359 H         1 <0>         0.1461
     28 H5          0.0483   -0.3384    4.5997 H         1 <0>         0.1429
     29 H6          0.0678   -3.9764    2.3498 H         1 <0>         0.1537
     30 H7          0.9686   -1.5656    6.0074 H         1 <0>         0.1068
     31 H8         -0.8112   -1.5904    6.0238 H         1 <0>         0.0995
     32 H9         -1.8715   -5.6684   10.1762 H         1 <0>         0.0997
     33 H10        -0.6088   -7.7259   10.7423 H         1 <0>         0.0745
     34 H11        -0.6098   -7.4401    8.9855 H         1 <0>         0.0589
     35 H12         0.8372   -7.0569    9.9486 H         1 <0>         0.0693
     36 H13        -0.6572   -4.1268   11.6919 H         1 <0>         0.0584
     37 H14        -0.6364   -5.7910   12.3228 H         1 <0>         0.0744
     38 H15         0.8095   -5.1221   11.5291 H         1 <0>         0.0692
     39 H16         1.0125    0.2352   -2.8031 H         1 <0>         0.0760
     40 H17        -0.5199   -0.5627   -3.2313 H         1 <0>         0.0774
     41 H18        -0.5377    0.9891   -2.3595 H         1 <0>         0.0764
@<TRIPOS>BOND
     1    1    2 1
     2    1   24 1
     3    1   25 1
     4    1   26 1
     5    2    8 1
     6    2    3 2
     7    3    4 1
     8    3   23 1
     9    4    5 2
    10    4    6 1
    11    6    7 1
    12    7   12 ar
    13    7    8 ar
    14    8    9 ar
    15    9   10 ar
    16    9   27 1
    17   10   11 ar
    18   10   28 1
    19   11   12 ar
    20   11   13 1
    21   12   29 1
    22   13   14 1
    23   14   15 1
    24   14   30 1
    25   14   31 1
    26   15   19 1
    27   15   16 2
    28   16   17 1
    29   17   18 2
    30   18   19 1
    31   18   20 1
    32   20   21 1
    33   20   22 1
    34   20   32 1
    35   21   33 1
    36   21   34 1
    37   21   35 1
    38   22   36 1
    39   22   37 1
    40   22   38 1
    41   23   39 1
    42   23   40 1
    43   23   41 1
@<TRIPOS>MOLECULE
CHEMBL45069
   40    42     0     0     0
SMALL
USER_CHARGES

@<TRIPOS>ATOM
      1 C1          0.0180   -1.1779   -0.0044 C.1       1 <0>        -0.1824
      2 C2          0.0021   -0.0041    0.0020 C.1       1 <0>        -0.1963
      3 C3         -0.0179    1.4678    0.0101 C.3       1 <0>         0.1683
      4 N1          1.3603    1.9762   -0.0003 N.3       1 <0>        -0.6860
      5 C4          1.3795    3.4451    0.0074 C.3       1 <0>         0.1163
      6 C5          2.8068    3.9288   -0.0036 C.2       1 <0>         0.0947
      7 C6          3.5180    4.2559    1.0869 C.2       1 <0>        -0.2001
      8 C7          4.8453    4.6694    0.6251 C.ar      1 <0>        -0.0684
      9 C8          6.0017    5.1127    1.2711 C.ar      1 <0>        -0.1108
     10 C9          7.1187    5.4330    0.5260 C.ar      1 <0>         0.1027
     11 C10         7.0944    5.3158   -0.8615 C.ar      1 <0>        -0.1776
     12 C11         5.9601    4.8798   -1.5086 C.ar      1 <0>        -0.0889
     13 C12         4.8242    4.5517   -0.7760 C.ar      1 <0>         0.0697
     14 N2          3.5713    4.0939   -1.1260 N.pl3     1 <0>        -0.5822
     15 H1          3.2756    3.9173   -2.0328 H         1 <0>         0.4159
     16 O1          8.2474    5.8652    1.1495 O.3       1 <0>        -0.3099
     17 C13         9.3672    6.1797    0.3193 C.3       1 <0>         0.1033
     18 C14        10.5170    6.6376    1.1790 C.ar      1 <0>        -0.0972
     19 C15        10.6576    7.9775    1.4889 C.ar      1 <0>        -0.0955
     20 C16        11.7123    8.3976    2.2775 C.ar      1 <0>        -0.1234
     21 C17        12.6262    7.4778    2.7567 C.ar      1 <0>        -0.1099
     22 C18        12.4851    6.1379    2.4477 C.ar      1 <0>        -0.1234
     23 C19        11.4280    5.7172    1.6626 C.ar      1 <0>        -0.0955
     24 H2          0.0322   -2.2278   -0.0102 H         1 <0>         0.2190
     25 H3         -0.5451    1.8289   -0.8729 H         1 <0>         0.0970
     26 H4         -0.5281    1.8193    0.9069 H         1 <0>         0.0591
     27 H5          1.8890    1.6036    0.7740 H         1 <0>         0.3527
     28 H6          0.8620    3.8199   -0.8757 H         1 <0>         0.0880
     29 H7          0.8790    3.8103    0.9042 H         1 <0>         0.0650
     30 H8          3.1762    4.2212    2.1108 H         1 <0>         0.1464
     31 H9          6.0215    5.2047    2.3470 H         1 <0>         0.1304
     32 H10         7.9735    5.5696   -1.4352 H         1 <0>         0.1312
     33 H11         5.9523    4.7926   -2.5851 H         1 <0>         0.1240
     34 H12         9.6636    5.2935   -0.2420 H         1 <0>         0.0700
     35 H13         9.0933    6.9744   -0.3746 H         1 <0>         0.0700
     36 H14         9.9435    8.6961    1.1145 H         1 <0>         0.1242
     37 H15        11.8225    9.4445    2.5190 H         1 <0>         0.1254
     38 H16        13.4506    7.8061    3.3723 H         1 <0>         0.1244
     39 H17        13.1994    5.4193    2.8218 H         1 <0>         0.1254
     40 H18        11.3157    4.6698    1.4242 H         1 <0>         0.1242
@<TRIPOS>BOND
     1    1    2 3
     2    1   24 1
     3    2    3 1
     4    3    4 1
     5    3   25 1
     6    3   26 1
     7    4    5 1
     8    4   27 1
     9    5    6 1
    10    5   28 1
    11    5   29 1
    12    6   14 1
    13    6    7 2
    14    7    8 1
    15    7   30 1
    16    8   13 ar
    17    8    9 ar
    18    9   10 ar
    19    9   31 1
    20   10   11 ar
    21   10   16 1
    22   11   12 ar
    23   11   32 1
    24   12   13 ar
    25   12   33 1
    26   13   14 1
    27   14   15 1
    28   16   17 1
    29   17   18 1
    30   17   34 1
    31   17   35 1
    32   18   23 ar
    33   18   19 ar
    34   19   20 ar
    35   19   36 1
    36   20   21 ar
    37   20   37 1
    38   21   22 ar
    39   21   38 1
    40   22   23 ar
    41   22   39 1
    42   23   40 1
@<TRIPOS>MOLECULE
CHEMBL45069__1
   41    43     0     0     0
SMALL
USER_CHARGES

@<TRIPOS>ATOM
      1 C1          0.0180   -1.1779   -0.0044 C.1       1 <0>        -0.0476
      2 C2          0.0021   -0.0041    0.0020 C.1       1 <0>        -0.3074
      3 C3         -0.0179    1.4678    0.0101 C.3       1 <0>         0.1330
      4 N1          1.3603    1.9762   -0.0003 N.4       1 <0>        -0.5125
      5 C4          1.3403    3.4451    0.0078 C.3       1 <0>         0.0712
      6 C5          2.7542    3.9667   -0.0029 C.2       1 <0>        -0.0111
      7 C6          3.4563    4.3124    1.0878 C.2       1 <0>        -0.1273
      8 C7          4.7722    4.7612    0.6263 C.ar      1 <0>        -0.0829
      9 C8          5.9161    5.2351    1.2725 C.ar      1 <0>        -0.1059
     10 C9          7.0244    5.5853    0.5278 C.ar      1 <0>         0.1173
     11 C10         7.0034    5.4678   -0.8598 C.ar      1 <0>        -0.1555
     12 C11         5.8812    5.0019   -1.5072 C.ar      1 <0>        -0.0922
     13 C12         4.7543    4.6434   -0.7748 C.ar      1 <0>         0.0861
     14 N2          3.5142    4.1525   -1.1251 N.pl3     1 <0>        -0.5899
     15 H1          3.2235    3.9682   -2.0320 H         1 <0>         0.4178
     16 O1          8.1411    6.0472    1.1515 O.3       1 <0>        -0.3051
     17 C13         9.2522    6.3917    0.3215 C.3       1 <0>         0.1031
     18 C14        10.3893    6.8800    1.1816 C.ar      1 <0>        -0.1045
     19 C15        10.4940    8.2230    1.4917 C.ar      1 <0>        -0.0946
     20 C16        11.5370    8.6709    2.2806 C.ar      1 <0>        -0.1218
     21 C17        12.4750    7.7757    2.7598 C.ar      1 <0>        -0.1048
     22 C18        12.3698    6.4325    2.4503 C.ar      1 <0>        -0.1222
     23 C19        11.3244    5.9840    1.6650 C.ar      1 <0>        -0.0950
     24 H2          0.0322   -2.2278   -0.0102 H         1 <0>         0.2367
     25 H3         -0.5451    1.8289   -0.8729 H         1 <0>         0.1500
     26 H4         -0.5281    1.8193    0.9069 H         1 <0>         0.1529
     27 H5          1.8483    1.6420    0.8171 H         1 <0>         0.4346
     28 H6          0.8132    3.8062   -0.8753 H         1 <0>         0.1430
     29 H7          0.8302    3.7966    0.9046 H         1 <0>         0.1589
     30 H8          3.1154    4.2683    2.1116 H         1 <0>         0.1599
     31 H9          5.9334    5.3273    2.3485 H         1 <0>         0.1386
     32 H10         7.8755    5.7451   -1.4333 H         1 <0>         0.1408
     33 H11         5.8759    4.9148   -2.5837 H         1 <0>         0.1315
     34 H12         9.5722    5.5139   -0.2399 H         1 <0>         0.0730
     35 H13         8.9572    7.1790   -0.3722 H         1 <0>         0.0734
     36 H14         9.7611    8.9224    1.1174 H         1 <0>         0.1242
     37 H15        11.6192    9.7203    2.5224 H         1 <0>         0.1277
     38 H16        13.2903    8.1257    3.3755 H         1 <0>         0.1271
     39 H17        13.1029    5.7332    2.8244 H         1 <0>         0.1274
     40 H18        11.2401    4.9341    1.4263 H         1 <0>         0.1237
     41 H19         1.8325    1.6508   -0.8305 H         1 <0>         0.4285
@<TRIPOS>BOND
     1    1    2 3
     2    1   24 1
     3    2    3 1
     4    3    4 1
     5    3   25 1
     6    3   26 1
     7    4    5 1
     8    4   27 1
     9    4   41 1
    10    5    6 1
    11    5   28 1
    12    5   29 1
    13    6   14 1
    14    6    7 2
    15    7    8 1
    16    7   30 1
    17    8   13 ar
    18    8    9 ar
    19    9   10 ar
    20    9   31 1
    21   10   11 ar
    22   10   16 1
    23   11   12 ar
    24   11   32 1
    25   12   13 ar
    26   12   33 1
    27   13   14 1
    28   14   15 1
    29   16   17 1
    30   17   18 1
    31   17   34 1
    32   17   35 1
    33   18   23 ar
    34   18   19 ar
    35   19   20 ar
    36   19   36 1
    37   20   21 ar
    38   20   37 1
    39   21   22 ar
    40   21   38 1
    41   22   23 ar
    42   22   39 1
    43   23   40 1
@<TRIPOS>MOLECULE
CHEMBL171809
   33    34     0     0     0
SMALL
USER_CHARGES

@<TRIPOS>ATOM
      1 C1         -0.0835    1.3764    0.0455 C.3       1 <0>         0.0131
      2 N1          0.0100   -0.0829   -0.0439 N.pl3     1 <0>        -0.4432
      3 C2          0.1218   -0.8858    1.1764 C.3       1 <0>         0.0972
      4 C3          1.4311   -0.5834    1.8585 C.ar      1 <0>        -0.1468
      5 C4          2.5601   -1.3160    1.5432 C.ar      1 <0>        -0.0981
      6 C5          3.7611   -1.0386    2.1689 C.ar      1 <0>        -0.1139
      7 C6          3.8332   -0.0283    3.1097 C.ar      1 <0>        -0.0898
      8 C7          2.7044    0.7049    3.4243 C.ar      1 <0>        -0.1140
      9 C8          1.5043    0.4303    2.7955 C.ar      1 <0>        -0.0967
     10 C9         -0.0061   -0.6644   -1.2042 C.2       1 <0>         0.3946
     11 C10        -0.0327   -2.1685   -1.2930 C.3       1 <0>        -0.1706
     12 C11         0.0017    0.1419   -2.4282 C.2       1 <0>        -0.0950
     13 C12        -0.6260   -0.1723   -3.6147 C.2       1 <0>        -0.0532
     14 C13        -0.3589    0.8697   -4.5101 C.2       1 <0>        -0.2037
     15 C14         0.4098    1.7810   -3.8691 C.2       1 <0>         0.0904
     16 N2          0.6317    1.3527   -2.6001 N.pl3     1 <0>        -0.5471
     17 H1          1.1502    1.8212   -1.9274 H         1 <0>         0.4230
     18 H2          0.9112    1.8110   -0.0527 H         1 <0>         0.1003
     19 H3         -0.7235    1.7491   -0.7543 H         1 <0>         0.1132
     20 H4         -0.5081    1.6549    1.0100 H         1 <0>         0.1218
     21 H5         -0.7021   -0.6434    1.8476 H         1 <0>         0.1303
     22 H6          0.0818   -1.9444    0.9197 H         1 <0>         0.1318
     23 H7          2.5038   -2.1054    0.8082 H         1 <0>         0.1254
     24 H8          4.6431   -1.6115    1.9231 H         1 <0>         0.1346
     25 H9          4.7713    0.1879    3.5991 H         1 <0>         0.1348
     26 H10         2.7606    1.4940    4.1596 H         1 <0>         0.1348
     27 H11         0.6232    1.0056    3.0386 H         1 <0>         0.1278
     28 H12        -1.0618   -2.5190   -1.2134 H         1 <0>         0.1364
     29 H13         0.3855   -2.4836   -2.2489 H         1 <0>         0.1277
     30 H14        -1.2131   -1.0563   -3.8155 H         1 <0>         0.1650
     31 H15        -0.7044    0.9349   -5.5313 H         1 <0>         0.1641
     32 H16         0.7825    2.7003   -4.2962 H         1 <0>         0.1914
     33 H17         0.5588   -2.5909   -0.4807 H         1 <0>         0.1147
@<TRIPOS>BOND
     1    1    2 1
     2    1   18 1
     3    1   19 1
     4    1   20 1
     5    2    3 1
     6    2   10 2
     7    3    4 1
     8    3   21 1
     9    3   22 1
    10    4    9 ar
    11    4    5 ar
    12    5    6 ar
    13    5   23 1
    14    6    7 ar
    15    6   24 1
    16    7    8 ar
    17    7   25 1
    18    8    9 ar
    19    8   26 1
    20    9   27 1
    21   10   11 1
    22   10   12 1
    23   11   28 1
    24   11   29 1
    25   11   33 1
    26   12   16 1
    27   12   13 2
    28   13   14 1
    29   13   30 1
    30   14   15 2
    31   14   31 1
    32   15   16 1
    33   15   32 1
    34   16   17 1
@<TRIPOS>MOLECULE
CHEMBL333304
   45    47     0     0     0
SMALL
USER_CHARGES

@<TRIPOS>ATOM
      1 C1         -0.0178    1.4608    0.0101 C.3       1 <0>         0.0556
      2 N1          0.0021   -0.0041    0.0020 N.pl3     1 <0>        -0.5910
      3 C2          0.0241   -0.7433    1.2666 C.3       1 <0>         0.1145
      4 C3         -1.4105   -1.0203    1.7205 C.3       1 <0>         0.0306
      5 O1         -2.0465   -1.8923    0.7840 O.3       1 <0>        -0.3203
      6 C4         -3.3348   -2.2400    1.0412 C.ar      1 <0>         0.1254
      7 C5         -3.9756   -1.7474    2.1688 C.ar      1 <0>        -0.2040
      8 C6         -5.2854   -2.1021    2.4278 C.ar      1 <0>        -0.0654
      9 C7         -5.9575   -2.9475    1.5646 C.ar      1 <0>        -0.1221
     10 C8         -5.3210   -3.4402    0.4404 C.ar      1 <0>        -0.0603
     11 C9         -4.0133   -3.0837    0.1736 C.ar      1 <0>        -0.1461
     12 C10        -7.3862   -3.3331    1.8499 C.3       1 <0>        -0.0555
     13 C11        -8.3282   -2.3252    1.1885 C.3       1 <0>        -0.0697
     14 H1         -8.0909   -1.3060    1.4933 H         1 <0>         0.1596
     15 C12        -9.7859   -2.6623    1.4695 C.2       1 <0>         0.5292
     16 O2        -10.2448   -2.6686    2.5917 O.2       1 <0>        -0.4534
     17 N2        -10.5170   -2.9474    0.4052 N.am      1 <0>        -0.6890
     18 C13       -10.0318   -2.9469   -0.8502 C.2       1 <0>         0.5657
     19 O3        -10.6238   -3.1938   -1.8830 O.2       1 <0>        -0.4109
     20 S1         -8.3132   -2.4970   -0.6448 S.3       1 <0>        -0.1554
     21 C14         0.0000   -0.6925   -1.2055 C.ar      1 <0>         0.4449
     22 C15         0.0132   -2.0839   -1.2060 C.ar      1 <0>        -0.1767
     23 C16         0.0110   -2.7560   -2.4146 C.ar      1 <0>         0.0308
     24 C17        -0.0044   -2.0117   -3.5870 C.ar      1 <0>        -0.1664
     25 C18        -0.0170   -0.6335   -3.5127 C.ar      1 <0>         0.1393
     26 N3         -0.0200   -0.0186   -2.3450 N.ar      1 <0>        -0.5040
     27 H2          1.0048    1.8381    0.0023 H         1 <0>         0.0863
     28 H3         -0.5450    1.8219   -0.8730 H         1 <0>         0.0733
     29 H4         -0.5280    1.8123    0.9069 H         1 <0>         0.1054
     30 H5          0.5496   -1.6879    1.1262 H         1 <0>         0.1083
     31 H6          0.5371   -0.1514    2.0246 H         1 <0>         0.1284
     32 H7         -1.3961   -1.4911    2.7035 H         1 <0>         0.0918
     33 H8         -1.9619   -0.0816    1.7754 H         1 <0>         0.0738
     34 H9         -3.4507   -1.0876    2.8437 H         1 <0>         0.1287
     35 H10        -5.7846   -1.7188    3.3055 H         1 <0>         0.1320
     36 H11        -5.8481   -4.1007   -0.2321 H         1 <0>         0.1384
     37 H12        -3.5179   -3.4652   -0.7070 H         1 <0>         0.1298
     38 H13        -7.5805   -4.3285    1.4504 H         1 <0>         0.0942
     39 H14        -7.5539   -3.3347    2.9269 H         1 <0>         0.1083
     40 H15       -11.4523   -3.1688    0.5362 H         1 <0>         0.4215
     41 H16         0.0254   -2.6314   -0.2752 H         1 <0>         0.1791
     42 H17         0.0214   -3.8355   -2.4461 H         1 <0>         0.1728
     43 H18        -0.0062   -2.5062   -4.5471 H         1 <0>         0.1796
     44 H19        -0.0287   -0.0508   -4.4219 H         1 <0>         0.2049
     45 H20        -0.0329    0.9510   -2.3209 H         1 <0>         0.4380
@<TRIPOS>BOND
     1    1    2 1
     2    1   27 1
     3    1   28 1
     4    1   29 1
     5    2    3 1
     6    2   21 1
     7    3    4 1
     8    3   30 1
     9    3   31 1
    10    4    5 1
    11    4   32 1
    12    4   33 1
    13    5    6 1
    14    6   11 ar
    15    6    7 ar
    16    7    8 ar
    17    7   34 1
    18    8    9 ar
    19    8   35 1
    20    9   10 ar
    21    9   12 1
    22   10   11 ar
    23   10   36 1
    24   11   37 1
    25   12   13 1
    26   12   38 1
    27   12   39 1
    28   13   14 1
    29   13   20 1
    30   13   15 1
    31   15   16 2
    32   15   17 am
    33   17   18 am
    34   17   40 1
    35   18   19 2
    36   18   20 1
    37   21   26 ar
    38   21   22 ar
    39   22   23 ar
    40   22   41 1
    41   23   24 ar
    42   23   42 1
    43   24   25 ar
    44   24   43 1
    45   25   26 ar
    46   25   44 1
    47   26   45 1
@<TRIPOS>MOLECULE
CHEMBL333304__1
   44    46     0     0     0
SMALL
USER_CHARGES

@<TRIPOS>ATOM
      1 C1         -0.0178    1.4608    0.0101 C.3       1 <0>         0.0945
      2 N1          0.0021   -0.0041    0.0020 N.pl3     1 <0>        -0.6142
      3 C2          0.0241   -0.7433    1.2666 C.3       1 <0>         0.1321
      4 C3         -1.4105   -1.0203    1.7205 C.3       1 <0>         0.0411
      5 O1         -2.0465   -1.8923    0.7840 O.3       1 <0>        -0.2835
      6 C4         -3.3348   -2.2400    1.0412 C.ar      1 <0>         0.1409
      7 C5         -3.9756   -1.7474    2.1688 C.ar      1 <0>        -0.2139
      8 C6         -5.2854   -2.1021    2.4278 C.ar      1 <0>        -0.0668
      9 C7         -5.9575   -2.9475    1.5646 C.ar      1 <0>        -0.1417
     10 C8         -5.3210   -3.4402    0.4404 C.ar      1 <0>        -0.0611
     11 C9         -4.0133   -3.0837    0.1736 C.ar      1 <0>        -0.1489
     12 C10        -7.3862   -3.3331    1.8499 C.3       1 <0>        -0.0487
     13 C11        -8.3282   -2.3252    1.1885 C.3       1 <0>        -0.0711
     14 H1         -8.0909   -1.3060    1.4933 H         1 <0>         0.1601
     15 C12        -9.7859   -2.6623    1.4695 C.2       1 <0>         0.5303
     16 O2        -10.2448   -2.6686    2.5917 O.2       1 <0>        -0.4587
     17 N2        -10.5170   -2.9474    0.4052 N.am      1 <0>        -0.6898
     18 C13       -10.0318   -2.9469   -0.8502 C.2       1 <0>         0.5609
     19 O3        -10.6238   -3.1938   -1.8830 O.2       1 <0>        -0.4172
     20 S1         -8.3132   -2.4970   -0.6448 S.3       1 <0>        -0.1415
     21 C14         0.0000   -0.6925   -1.2055 C.ar      1 <0>         0.4038
     22 C15         0.0901    0.0128   -2.4015 C.ar      1 <0>        -0.2402
     23 C16         0.0870   -0.6849   -3.5956 C.ar      1 <0>        -0.0374
     24 C17        -0.0066   -2.0699   -3.5538 C.ar      1 <0>        -0.2340
     25 C18        -0.0930   -2.7051   -2.3314 C.ar      1 <0>         0.1464
     26 N3         -0.0823   -2.0140   -1.2072 N.ar      1 <0>        -0.5186
     27 H2          1.0048    1.8381    0.0023 H         1 <0>         0.0541
     28 H3         -0.5450    1.8219   -0.8730 H         1 <0>         0.0704
     29 H4         -0.5280    1.8123    0.9069 H         1 <0>         0.0696
     30 H5          0.5496   -1.6879    1.1262 H         1 <0>         0.0964
     31 H6          0.5371   -0.1514    2.0246 H         1 <0>         0.0936
     32 H7         -1.3961   -1.4911    2.7035 H         1 <0>         0.0686
     33 H8         -1.9619   -0.0816    1.7754 H         1 <0>         0.0586
     34 H9         -3.4507   -1.0876    2.8437 H         1 <0>         0.1263
     35 H10        -5.7846   -1.7188    3.3055 H         1 <0>         0.1256
     36 H11        -5.8481   -4.1007   -0.2321 H         1 <0>         0.1327
     37 H12        -3.5179   -3.4652   -0.7070 H         1 <0>         0.1303
     38 H13        -7.5805   -4.3285    1.4504 H         1 <0>         0.0900
     39 H14        -7.5539   -3.3347    2.9269 H         1 <0>         0.1041
     40 H15       -11.4523   -3.1688    0.5362 H         1 <0>         0.4181
     41 H16         0.1612    1.0904   -2.3974 H         1 <0>         0.1282
     42 H17         0.1553   -0.1643   -4.5394 H         1 <0>         0.1296
     43 H18        -0.0120   -2.6441   -4.4685 H         1 <0>         0.1287
     44 H19        -0.1662   -3.7820   -2.2944 H         1 <0>         0.1520
@<TRIPOS>BOND
     1    1    2 1
     2    1   27 1
     3    1   28 1
     4    1   29 1
     5    2    3 1
     6    2   21 1
     7    3    4 1
     8    3   30 1
     9    3   31 1
    10    4    5 1
    11    4   32 1
    12    4   33 1
    13    5    6 1
    14    6   11 ar
    15    6    7 ar
    16    7    8 ar
    17    7   34 1
    18    8    9 ar
    19    8   35 1
    20    9   10 ar
    21    9   12 1
    22   10   11 ar
    23   10   36 1
    24   11   37 1
    25   12   13 1
    26   12   38 1
    27   12   39 1
    28   13   14 1
    29   13   20 1
    30   13   15 1
    31   15   16 2
    32   15   17 am
    33   17   18 am
    34   17   40 1
    35   18   19 2
    36   18   20 1
    37   21   26 ar
    38   21   22 ar
    39   22   23 ar
    40   22   41 1
    41   23   24 ar
    42   23   42 1
    43   24   25 ar
    44   24   43 1
    45   25   26 ar
    46   25   44 1
