@<TRIPOS>MOLECULE
ZINC02004002
   27    27     0     0     0
SMALL
USER_CHARGES
1-(4-bromophenyl)-2-methyl-propan-2-amine
@<TRIPOS>ATOM
      1 C1          0.0021   -0.0041    0.0020 C.3       1 <0>        -0.1780
      2 C2         -0.0187    1.5258    0.0104 C.3       1 <0>         0.0695
      3 C3          1.4167    2.0553   -0.0004 C.3       1 <0>        -0.1834
      4 C4         -0.7348    2.0192    1.2692 C.3       1 <0>        -0.0930
      5 C5         -0.8639    3.5198    1.2182 C.ar      1 <0>        -0.1154
      6 C6          0.1285    4.3174    1.7567 C.ar      1 <0>        -0.0976
      7 C7          0.0128    5.6938    1.7058 C.ar      1 <0>        -0.0795
      8 C8         -1.1011    6.2730    1.1253 C.ar      1 <0>        -0.0816
      9 C9         -2.0964    5.4745    0.5913 C.ar      1 <0>        -0.0812
     10 C10        -1.9774    4.0982    0.6379 C.ar      1 <0>        -0.1351
     11 Br1        -1.2631    8.1560    1.0612 Br        1 <0>        -0.0225
     12 H1          0.5293   -0.3651    0.8851 H         1 <0>         0.1075
     13 H2         -1.0205   -0.3814    0.0098 H         1 <0>         0.0840
     14 H3          0.5123   -0.3556   -0.8948 H         1 <0>         0.0853
     15 H4          1.9269    1.7038   -0.8972 H         1 <0>         0.0841
     16 H5          1.4019    3.1452    0.0056 H         1 <0>         0.0846
     17 H6          1.9439    1.6943    0.8826 H         1 <0>         0.1072
     18 H7         -1.7269    1.5708    1.3222 H         1 <0>         0.1021
     19 H8         -0.1596    1.7338    2.1500 H         1 <0>         0.1219
     20 H9          0.9963    3.8650    2.2135 H         1 <0>         0.1399
     21 H10         0.7903    6.3169    2.1225 H         1 <0>         0.1432
     22 H11        -2.9661    5.9263    0.1376 H         1 <0>         0.1425
     23 H12        -2.7542    3.4746    0.2207 H         1 <0>         0.1329
     24 H13        -1.6803    1.6760   -1.1957 H         1 <0>         0.4346
     25 H14        -0.7009    3.0197   -1.2310 H         1 <0>         0.4338
     26 N1         -0.7151    2.0017   -1.1978 N.4       1 <0>        -0.6448
     27 H15        -0.2389    1.6327   -2.0293 H         1 <0>         0.4389
@<TRIPOS>BOND
     1    1    2 1
     2    1   12 1
     3    1   13 1
     4    1   14 1
     5    2    3 1
     6    2    4 1
     7    2   26 1
     8    3   15 1
     9    3   16 1
    10    3   17 1
    11    4    5 1
    12    4   18 1
    13    4   19 1
    14    5   10 ar
    15    5    6 ar
    16    6    7 ar
    17    6   20 1
    18    7    8 ar
    19    7   21 1
    20    8    9 ar
    21    8   11 1
    22    9   10 ar
    23    9   22 1
    24   10   23 1
    25   24   26 1
    26   25   26 1
    27   26   27 1
@<TRIPOS>MOLECULE
ZINC35381123
   28    29     0     0     0
SMALL
USER_CHARGES

@<TRIPOS>ATOM
      1 C1         -0.0184    1.5028    0.0103 C.3       1 <0>        -0.0894
      2 C2          0.0021   -0.0041    0.0020 C.2       1 <0>         0.0474
      3 C3         -1.0783   -0.8055    0.0027 C.2       1 <0>        -0.2173
      4 C4         -0.6011   -2.1363   -0.0068 C.2       1 <0>        -0.1130
      5 C5          0.7423   -2.0686   -0.0126 C.2       1 <0>        -0.1246
      6 O1          1.1020   -0.7746   -0.0131 O.3       1 <0>        -0.1751
      7 C6          1.6840   -3.2450   -0.0226 C.3       1 <0>         0.2036
      8 H1          1.1555   -4.1305   -0.3760 H         1 <0>         0.1800
      9 C7          2.1970   -3.4898    1.3731 C.ar      1 <0>        -0.2403
     10 C8          3.1495   -2.6461    1.9183 C.ar      1 <0>         0.1697
     11 C9          3.6207   -2.8710    3.2005 C.ar      1 <0>        -0.1865
     12 C10         3.1390   -3.9392    3.9375 C.ar      1 <0>         0.2040
     13 C11         2.1858   -4.7823    3.3926 C.ar      1 <0>        -0.1897
     14 C12         1.7115   -4.5550    2.1121 C.ar      1 <0>         0.2057
     15 F1          0.7778   -5.3750    1.5821 F         1 <0>        -0.1041
     16 F2          3.5995   -4.1591    5.1884 F         1 <0>        -0.0993
     17 F3          3.6196   -1.6036    1.1990 F         1 <0>        -0.1141
     18 N1          2.8142   -2.9600   -0.9167 N.4       1 <0>        -0.6409
     19 H2          1.0042    1.8801    0.0026 H         1 <0>         0.0833
     20 H3         -0.5455    1.8639   -0.8728 H         1 <0>         0.0998
     21 H4         -0.5286    1.8543    0.9071 H         1 <0>         0.0998
     22 H5         -2.1119   -0.4924    0.0097 H         1 <0>         0.1651
     23 H6         -1.2002   -3.0349   -0.0086 H         1 <0>         0.1636
     24 H7          4.3643   -2.2132    3.6256 H         1 <0>         0.1735
     25 H8          1.8102   -5.6159    3.9675 H         1 <0>         0.1756
     26 H9          3.3034   -2.1404   -0.5896 H         1 <0>         0.4356
     27 H10         3.4447   -3.7477   -0.9234 H         1 <0>         0.4420
     28 H11         2.4708   -2.7962   -1.8512 H         1 <0>         0.4457
@<TRIPOS>BOND
     1    1    2 1
     2    1   19 1
     3    1   20 1
     4    1   21 1
     5    2    6 1
     6    2    3 2
     7    3    4 1
     8    3   22 1
     9    4    5 2
    10    4   23 1
    11    5    6 1
    12    5    7 1
    13    7    8 1
    14    7    9 1
    15    7   18 1
    16    9   14 ar
    17    9   10 ar
    18   10   11 ar
    19   10   17 1
    20   11   12 ar
    21   11   24 1
    22   12   13 ar
    23   12   16 1
    24   13   14 ar
    25   13   25 1
    26   14   15 1
    27   18   26 1
    28   18   27 1
    29   18   28 1
@<TRIPOS>MOLECULE
ZINC41164451
   40    42     0     0     0
SMALL
USER_CHARGES

@<TRIPOS>ATOM
      1 C1         -0.0187    1.5258    0.0104 C.3       1 <0>        -0.1608
      2 C2          0.0021   -0.0041    0.0020 C.3       1 <0>        -0.1017
      3 C3         -1.4333   -0.5336    0.0129 C.3       1 <0>        -0.1298
      4 C4         -2.1494   -0.0402    1.2717 C.3       1 <0>        -0.1315
      5 C5         -1.4095   -0.5471    2.5112 C.3       1 <0>         0.1793
      6 C6          0.0259   -0.0175    2.5003 C.3       1 <0>        -0.1315
      7 C7          0.7421   -0.5109    1.2415 C.3       1 <0>        -0.1298
      8 C8         -2.1148   -0.0611    3.7511 C.2       1 <0>        -0.0306
      9 N1         -2.3456    1.1719    4.1251 N.2       1 <0>        -0.4590
     10 C9         -2.9845    1.4605    5.2527 C.2       1 <0>         0.0671
     11 C10        -3.3742    0.3797    5.9798 C.2       1 <0>        -0.1407
     12 S1         -2.8046   -0.9733    4.9893 S.3       1 <0>         0.0980
     13 C11        -4.1018    0.3708    7.2807 C.3       1 <0>        -0.0485
     14 C12        -4.0349    1.7862    7.8771 C.3       1 <0>        -0.1170
     15 C13        -4.3990    2.7991    6.7880 C.3       1 <0>        -0.1261
     16 C14        -3.2854    2.8704    5.7410 C.3       1 <0>        -0.0426
     17 N2         -1.3895   -2.0159    2.5031 N.4       1 <0>        -0.6364
     18 H1          1.0039    1.9031    0.0027 H         1 <0>         0.0651
     19 H2         -0.5459    1.8868   -0.8726 H         1 <0>         0.0651
     20 H3         -0.5289    1.8773    0.9072 H         1 <0>         0.0620
     21 H4          0.5123   -0.3556   -0.8948 H         1 <0>         0.0920
     22 H5         -1.9605   -0.1726   -0.8702 H         1 <0>         0.0989
     23 H6         -1.4185   -1.6235    0.0069 H         1 <0>         0.0606
     24 H7         -2.1642    1.0497    1.2777 H         1 <0>         0.1248
     25 H8         -3.1720   -0.4175    1.2794 H         1 <0>         0.0914
     26 H9          0.0111    1.0724    2.5063 H         1 <0>         0.1247
     27 H10         0.5531   -0.3786    3.3834 H         1 <0>         0.0915
     28 H11         0.7568   -1.6008    1.2356 H         1 <0>         0.0606
     29 H12         1.7647   -0.1336    1.2338 H         1 <0>         0.0989
     30 H13        -5.1421    0.0888    7.1183 H         1 <0>         0.0977
     31 H14        -3.6300   -0.3379    7.9613 H         1 <0>         0.0937
     32 H15        -4.7414    1.8682    8.7031 H         1 <0>         0.0875
     33 H16        -3.0251    1.9836    8.2367 H         1 <0>         0.0742
     34 H17        -5.3282    2.4940    6.3069 H         1 <0>         0.0706
     35 H18        -4.5340    3.7821    7.2394 H         1 <0>         0.0859
     36 H19        -2.3898    3.3013    6.1886 H         1 <0>         0.0903
     37 H20        -3.6105    3.4862    4.9024 H         1 <0>         0.0905
     38 H21        -0.9173   -2.3413    1.6730 H         1 <0>         0.4437
     39 H22        -0.9015   -2.3502    3.3206 H         1 <0>         0.4359
     40 H23        -2.3361   -2.3652    2.5103 H         1 <0>         0.4358
@<TRIPOS>BOND
     1    1    2 1
     2    1   18 1
     3    1   19 1
     4    1   20 1
     5    2    7 1
     6    2    3 1
     7    2   21 1
     8    3    4 1
     9    3   22 1
    10    3   23 1
    11    4    5 1
    12    4   24 1
    13    4   25 1
    14    5    6 1
    15    5    8 1
    16    5   17 1
    17    6    7 1
    18    6   26 1
    19    6   27 1
    20    7   28 1
    21    7   29 1
    22    8   12 1
    23    8    9 2
    24    9   10 1
    25   10   16 1
    26   10   11 2
    27   11   12 1
    28   11   13 1
    29   13   14 1
    30   13   30 1
    31   13   31 1
    32   14   15 1
    33   14   32 1
    34   14   33 1
    35   15   16 1
    36   15   34 1
    37   15   35 1
    38   16   36 1
    39   16   37 1
    40   17   38 1
    41   17   39 1
    42   17   40 1
@<TRIPOS>MOLECULE
ZINC49576460
   30    31     0     0     0
SMALL
USER_CHARGES

@<TRIPOS>ATOM
      1 C1         -0.0184    1.5028    0.0103 C.3       1 <0>        -0.1278
      2 C2          0.0021   -0.0041    0.0020 C.ar      1 <0>        -0.1007
      3 C3          0.0058   -0.6889   -1.1986 C.ar      1 <0>        -0.0567
      4 C4          0.0246   -2.0709   -1.2065 C.ar      1 <0>        -0.1574
      5 C5          0.0396   -2.7700   -0.0137 C.ar      1 <0>        -0.0965
      6 C6          0.0364   -2.0876    1.1878 C.ar      1 <0>        -0.1337
      7 C7          0.0229   -0.7029    1.1969 C.ar      1 <0>         0.1324
      8 F1          0.0245   -0.0345    2.3710 F         1 <0>        -0.1190
      9 C8          0.0281   -2.8164   -2.5162 C.3       1 <0>         0.1496
     10 H1          0.3666   -2.1521   -3.3115 H         1 <0>         0.1631
     11 C9         -1.3663   -3.2983   -2.8237 C.ar      1 <0>        -0.1695
     12 C10        -2.1660   -2.6064   -3.7202 C.ar      1 <0>        -0.0755
     13 C11        -3.4437   -3.0873   -3.9726 C.ar      1 <0>         0.0721
     14 C12        -3.8723   -4.2335   -3.3248 C.ar      1 <0>         0.1065
     15 N1         -3.0823   -4.8643   -2.4785 N.ar      1 <0>        -0.4355
     16 C13        -1.8612   -4.4385   -2.2198 C.ar      1 <0>         0.0946
     17 F2         -4.2581   -2.4452   -4.8385 F         1 <0>        -0.1100
     18 N2          0.9346   -3.9684   -2.4215 N.4       1 <0>        -0.6352
     19 H2          1.0042    1.8801    0.0026 H         1 <0>         0.0865
     20 H3         -0.5455    1.8639   -0.8728 H         1 <0>         0.0813
     21 H4         -0.5286    1.8543    0.9071 H         1 <0>         0.0803
     22 H5         -0.0063   -0.1438   -2.1309 H         1 <0>         0.1456
     23 H6          0.0536   -3.8499   -0.0211 H         1 <0>         0.1302
     24 H7          0.0479   -2.6339    2.1193 H         1 <0>         0.1517
     25 H8         -1.8040   -1.7146   -4.2101 H         1 <0>         0.1624
     26 H9         -4.8647   -4.6149   -3.5146 H         1 <0>         0.1848
     27 H10        -1.2421   -4.9849   -1.5238 H         1 <0>         0.1570
     28 H11         0.9370   -4.4675   -3.2984 H         1 <0>         0.4431
     29 H12         1.8682   -3.6458   -2.2156 H         1 <0>         0.4455
     30 H13         0.6213   -4.5833   -1.6854 H         1 <0>         0.4306
@<TRIPOS>BOND
     1    1    2 1
     2    1   19 1
     3    1   20 1
     4    1   21 1
     5    2    7 ar
     6    2    3 ar
     7    3    4 ar
     8    3   22 1
     9    4    5 ar
    10    4    9 1
    11    5    6 ar
    12    5   23 1
    13    6    7 ar
    14    6   24 1
    15    7    8 1
    16    9   10 1
    17    9   11 1
    18    9   18 1
    19   11   16 ar
    20   11   12 ar
    21   12   13 ar
    22   12   25 1
    23   13   14 ar
    24   13   17 1
    25   14   15 ar
    26   14   26 1
    27   15   16 ar
    28   16   27 1
    29   18   28 1
    30   18   29 1
    31   18   30 1
@<TRIPOS>MOLECULE
ZINC55144147
   32    33     0     0     0
SMALL
USER_CHARGES

@<TRIPOS>ATOM
      1 C1          0.0013    1.3799   -0.2095 C.ar      1 <0>        -0.1401
      2 C2          1.1757    2.0874    0.0013 C.ar      1 <0>         0.1498
      3 C3          2.3670    1.4062    0.2037 C.ar      1 <0>        -0.2014
      4 C4          2.3818    0.0236    0.1949 C.ar      1 <0>         0.0164
      5 C5          1.2095   -0.6804   -0.0159 C.ar      1 <0>        -0.1340
      6 C6          0.0202   -0.0027   -0.2175 C.ar      1 <0>         0.0155
      7 Cl1        -1.4492   -0.8887   -0.4813 Cl        1 <0>        -0.0349
      8 Cl2         3.8724   -0.8295    0.4482 Cl        1 <0>        -0.0403
      9 O1          1.1592    3.4463    0.0090 O.3       1 <0>        -0.3012
     10 C7          2.4206    4.1098    0.1116 C.3       1 <0>         0.0722
     11 C8          2.8173    4.2266    1.5847 C.3       1 <0>        -0.1457
     12 C9          1.7552    5.0312    2.3366 C.3       1 <0>        -0.1395
     13 C10         1.6471    6.4296    1.7252 C.3       1 <0>         0.0259
     14 C11         1.2504    6.3129    0.2521 C.3       1 <0>        -0.1422
     15 C12         2.3125    5.5082   -0.4998 C.3       1 <0>        -0.1098
     16 N1          0.6273    7.2022    2.4471 N.4       1 <0>        -0.6363
     17 H1         -0.9279    1.9085   -0.3628 H         1 <0>         0.1481
     18 H2          3.2824    1.9554    0.3676 H         1 <0>         0.1457
     19 H3          1.2227   -1.7603   -0.0228 H         1 <0>         0.1510
     20 H4          3.1773    3.5366   -0.4241 H         1 <0>         0.0928
     21 H5          2.8943    3.2304    2.0202 H         1 <0>         0.0931
     22 H6          3.7795    4.7327    1.6629 H         1 <0>         0.0945
     23 H7          0.7930    4.5251    2.2584 H         1 <0>         0.0945
     24 H8          2.0377    5.1144    3.3860 H         1 <0>         0.0914
     25 H9          2.6093    6.9357    1.8034 H         1 <0>         0.1425
     26 H10         0.2882    5.8067    0.1739 H         1 <0>         0.0969
     27 H11         1.1734    7.3091   -0.1835 H         1 <0>         0.0924
     28 H12         3.2747    6.0143   -0.4216 H         1 <0>         0.0976
     29 H13         2.0300    5.4250   -1.5493 H         1 <0>         0.0975
     30 H14         0.8889    7.2791    3.4185 H         1 <0>         0.4365
     31 H15         0.5560    8.1243    2.0439 H         1 <0>         0.4367
     32 H16        -0.2634    6.7336    2.3747 H         1 <0>         0.4343
@<TRIPOS>BOND
     1    1    6 ar
     2    1    2 ar
     3    1   17 1
     4    2    3 ar
     5    2    9 1
     6    3    4 ar
     7    3   18 1
     8    4    5 ar
     9    4    8 1
    10    5    6 ar
    11    5   19 1
    12    6    7 1
    13    9   10 1
    14   10   15 1
    15   10   11 1
    16   10   20 1
    17   11   12 1
    18   11   21 1
    19   11   22 1
    20   12   13 1
    21   12   23 1
    22   12   24 1
    23   13   14 1
    24   13   16 1
    25   13   25 1
    26   14   15 1
    27   14   26 1
    28   14   27 1
    29   15   28 1
    30   15   29 1
    31   16   30 1
    32   16   31 1
    33   16   32 1
@<TRIPOS>MOLECULE
ZINC01598042
   28    29     0     0     0
SMALL
USER_CHARGES
1-methyl-3-norbornan-2-yl-urea
@<TRIPOS>ATOM
      1 C1         -1.2896    1.6810    0.0173 C.3       1 <0>         0.1059
      2 N1         -0.0111    0.9658    0.0074 N.am      1 <0>        -0.7526
      3 C2          1.1468    1.6555   -0.0000 C.2       1 <0>         0.7006
      4 O1          1.1303    2.8713    0.0067 O.2       1 <0>        -0.5888
      5 N2          2.3230    0.9976   -0.0148 N.am      1 <0>        -0.7397
      6 C3          3.5816    1.7473   -0.0228 C.3       1 <0>         0.1618
      7 H1          3.4894    2.6496    0.5818 H         1 <0>         0.0904
      8 C4          3.9849    2.1078   -1.4708 C.3       1 <0>        -0.1307
      9 C5          5.3577    1.4002   -1.6855 C.3       1 <0>        -0.1046
     10 H2          5.6618    1.2547   -2.7220 H         1 <0>         0.0997
     11 C6          6.3527    2.1984   -0.7888 C.3       1 <0>        -0.1245
     12 C7          5.9494    1.8379    0.6593 C.3       1 <0>        -0.1195
     13 C8          4.7487    0.8558    0.5011 C.3       1 <0>        -0.1104
     14 H3          4.5224    0.2362    1.3689 H         1 <0>         0.1032
     15 C9          5.1570    0.1082   -0.8171 C.3       1 <0>        -0.1240
     16 H4         -1.3516    2.3020    0.9110 H         1 <0>         0.0583
     17 H5         -1.3601    2.3116   -0.8689 H         1 <0>         0.0581
     18 H6         -2.1084    0.9615    0.0173 H         1 <0>         0.0756
     19 H7          0.0021   -0.0041    0.0020 H         1 <0>         0.3970
     20 H8          2.3361    0.0277   -0.0201 H         1 <0>         0.3947
     21 H9          3.2468    1.7273   -2.1768 H         1 <0>         0.0674
     22 H10         4.0930    3.1872   -1.5776 H         1 <0>         0.0716
     23 H11         7.3778    1.8853   -0.9869 H         1 <0>         0.0650
     24 H12         6.2421    3.2694   -0.9586 H         1 <0>         0.0667
     25 H13         6.7763    1.3475    1.1731 H         1 <0>         0.0696
     26 H14         5.6405    2.7316    1.2014 H         1 <0>         0.0680
     27 H15         4.3509   -0.5190   -1.1978 H         1 <0>         0.0679
     28 H16         6.0840   -0.4527   -0.6986 H         1 <0>         0.0732
@<TRIPOS>BOND
     1    1    2 1
     2    1   16 1
     3    1   17 1
     4    1   18 1
     5    2    3 am
     6    2   19 1
     7    3    4 2
     8    3    5 am
     9    5    6 1
    10    5   20 1
    11    6    7 1
    12    6   13 1
    13    6    8 1
    14    8    9 1
    15    8   21 1
    16    8   22 1
    17    9   10 1
    18    9   15 1
    19    9   11 1
    20   11   12 1
    21   11   23 1
    22   11   24 1
    23   12   13 1
    24   12   25 1
    25   12   26 1
    26   13   14 1
    27   13   15 1
    28   15   27 1
    29   15   28 1
@<TRIPOS>MOLECULE
ZINC11757151
   26    27     0     0     0
SMALL
USER_CHARGES
1-propylindazol-6-amine
@<TRIPOS>ATOM
      1 C1         -0.0366    1.0992   -2.4903 C.3       1 <0>        -0.1500
      2 C2         -0.7527    1.5927   -1.2315 C.3       1 <0>        -0.1419
      3 C3         -0.0127    1.0858    0.0080 C.3       1 <0>         0.1422
      4 N1         -0.6984    1.5583    1.2133 N.pl3     1 <0>        -0.4106
      5 C4         -0.4349    2.7325    1.8697 C.ar      1 <0>         0.1775
      6 C5          0.4565    3.7787    1.6499 C.ar      1 <0>        -0.2410
      7 C6          0.4724    4.8576    2.5144 C.ar      1 <0>         0.2638
      8 C7         -0.4031    4.9080    3.6010 C.ar      1 <0>        -0.2214
      9 C8         -1.2864    3.8949    3.8269 C.ar      1 <0>         0.0062
     10 C9         -1.3191    2.7927    2.9643 C.ar      1 <0>        -0.2336
     11 C10        -2.1153    1.5704    2.9151 C.2       1 <0>         0.0834
     12 N2         -1.7229    0.8808    1.8824 N.2       1 <0>        -0.2652
     13 N3          1.3706    5.9052    2.2990 N.pl3     1 <0>        -0.8719
     14 H1          0.9860    1.4765   -2.4981 H         1 <0>         0.0571
     15 H2         -0.0218    0.0093   -2.4963 H         1 <0>         0.0590
     16 H3         -0.5637    1.4603   -3.3734 H         1 <0>         0.0617
     17 H4         -1.7753    1.2154   -1.2238 H         1 <0>         0.0706
     18 H5         -0.7675    2.6825   -1.2255 H         1 <0>         0.0663
     19 H6          0.0021   -0.0041    0.0020 H         1 <0>         0.0918
     20 H7          1.0099    1.4631    0.0003 H         1 <0>         0.0873
     21 H8          1.1359    3.7456    0.8110 H         1 <0>         0.1198
     22 H9         -0.3804    5.7572    4.2679 H         1 <0>         0.1253
     23 H10        -1.9597    3.9421    4.6700 H         1 <0>         0.1293
     24 H11        -2.8917    1.2883    3.6109 H         1 <0>         0.1938
     25 H12         1.3846    6.6640    2.9030 H         1 <0>         0.4013
     26 H13         1.9804    5.8739    1.5453 H         1 <0>         0.3993
@<TRIPOS>BOND
     1    1    2 1
     2    1   14 1
     3    1   15 1
     4    1   16 1
     5    2    3 1
     6    2   17 1
     7    2   18 1
     8    3    4 1
     9    3   19 1
    10    3   20 1
    11    4   12 1
    12    4    5 1
    13    5   10 ar
    14    5    6 ar
    15    6    7 ar
    16    6   21 1
    17    7    8 ar
    18    7   13 1
    19    8    9 ar
    20    8   22 1
    21    9   10 ar
    22    9   23 1
    23   10   11 1
    24   11   12 2
    25   11   24 1
    26   13   25 1
    27   13   26 1
@<TRIPOS>MOLECULE
ZINC08614784
   16    17     0     0     0
SMALL
USER_CHARGES
7-chloro-1,3-benzoxazol-2-amine
@<TRIPOS>ATOM
      1 C1          3.2109    3.1651   -0.0116 C.ar      1 <0>        -0.0950
      2 C2          1.8395    3.0313    0.0003 C.ar      1 <0>        -0.0802
      3 C3          1.2678    1.7584   -0.0006 C.ar      1 <0>         0.0825
      4 C4          2.0946    0.6252   -0.0146 C.ar      1 <0>        -0.0082
      5 C5          3.4721    0.7771   -0.0269 C.ar      1 <0>         0.0023
      6 C6          4.0249    2.0435   -0.0254 C.ar      1 <0>        -0.1072
      7 Cl1         4.5011   -0.6209   -0.0437 Cl        1 <0>        -0.0566
      8 O1          1.2710   -0.4485   -0.0125 O.3       1 <0>        -0.2291
      9 C7          0.0021   -0.0041    0.0020 C.2       1 <0>         0.5184
     10 N1         -0.0157    1.3043    0.0092 N.2       1 <0>        -0.5507
     11 N2         -1.1152   -0.8081    0.0077 N.pl3     1 <0>        -0.8206
     12 H1          3.6542    4.1500   -0.0106 H         1 <0>         0.1463
     13 H2          1.2094    3.9084    0.0103 H         1 <0>         0.1413
     14 H3          5.0986    2.1600   -0.0347 H         1 <0>         0.1490
     15 H4         -2.1180   -0.3561    0.0198 H         1 <0>         0.4629
     16 H5         -1.0053   -1.9026    0.0002 H         1 <0>         0.4450
@<TRIPOS>BOND
     1    1    6 ar
     2    1    2 ar
     3    1   12 1
     4    2    3 ar
     5    2   13 1
     6    3   10 1
     7    3    4 ar
     8    4    5 ar
     9    4    8 1
    10    5    6 ar
    11    5    7 1
    12    6   14 1
    13    8    9 1
    14    9   10 2
    15    9   11 1
    16   11   15 1
    17   11   16 1
@<TRIPOS>MOLECULE
ZINC39119782
   20    21     0     0     0
SMALL
USER_CHARGES

@<TRIPOS>ATOM
      1 C1         -0.0168    1.3845    0.0097 C.ar      1 <0>        -0.1103
      2 C2          1.1415    2.1034    0.0025 C.ar      1 <0>        -0.0799
      3 C3          2.3811    1.4424   -0.0128 C.ar      1 <0>        -0.0499
      4 C4          3.5901    2.1622   -0.0199 C.ar      1 <0>        -0.1587
      5 C5          4.7721    1.4460   -0.0346 C.ar      1 <0>         0.1661
      6 C6          4.7326    0.0469   -0.0420 C.ar      1 <0>         0.1004
      7 N1          3.5968   -0.6077   -0.0352 N.ar      1 <0>        -0.4435
      8 C7          2.4241    0.0270   -0.0209 C.ar      1 <0>         0.1119
      9 C8          1.2042   -0.6969   -0.0135 C.ar      1 <0>         0.0079
     10 C9          0.0021   -0.0041    0.0020 C.ar      1 <0>        -0.0587
     11 C10         1.2132   -2.1288   -0.0221 C.1       1 <0>         0.2620
     12 N2          1.2204   -3.2648   -0.0290 N.1       1 <0>        -0.4089
     13 N3          5.9988    2.1145   -0.0426 N.pl3     1 <0>        -0.8653
     14 H1         -0.9640    1.9031    0.0260 H         1 <0>         0.1393
     15 H2          1.1062    3.1829    0.0082 H         1 <0>         0.1367
     16 H3          3.5944    3.2421   -0.0144 H         1 <0>         0.1414
     17 H4          5.6599   -0.5065   -0.0539 H         1 <0>         0.1616
     18 H5         -0.9293   -0.5508    0.0083 H         1 <0>         0.1404
     19 H6          6.0228    3.0841   -0.0378 H         1 <0>         0.4036
     20 H7          6.8266    1.6089   -0.0529 H         1 <0>         0.4038
@<TRIPOS>BOND
     1    1   10 ar
     2    1    2 ar
     3    1   14 1
     4    2    3 ar
     5    2   15 1
     6    3    8 ar
     7    3    4 ar
     8    4    5 ar
     9    4   16 1
    10    5    6 ar
    11    5   13 1
    12    6    7 ar
    13    6   17 1
    14    7    8 ar
    15    8    9 ar
    16    9   10 ar
    17    9   11 1
    18   10   18 1
    19   11   12 3
    20   13   19 1
    21   13   20 1
@<TRIPOS>MOLECULE
ZINC51925450
   27    28     0     0     0
SMALL
USER_CHARGES

@<TRIPOS>ATOM
      1 C1         -0.0184    1.5028    0.0103 C.3       1 <0>        -0.0688
      2 C2          0.0021   -0.0041    0.0020 C.2       1 <0>         0.0052
      3 C3          0.0078   -0.7880   -1.0932 C.2       1 <0>        -0.0277
      4 N1          0.0279   -2.0856   -0.6525 N.pl3     1 <0>        -0.4083
      5 C4          0.0338   -2.0455    0.7047 C.2       1 <0>         0.1949
      6 N2          0.0236   -0.7963    1.0838 N.2       1 <0>        -0.4820
      7 C5          0.0395   -3.2387   -1.4533 C.ar      1 <0>         0.0488
      8 C6         -1.0389   -4.1110   -1.4317 C.ar      1 <0>        -0.0652
      9 C7         -1.0265   -5.2459   -2.2198 C.ar      1 <0>        -0.1382
     10 C8          0.0594   -5.5171   -3.0327 C.ar      1 <0>        -0.0899
     11 C9          1.1394   -4.6531   -3.0610 C.ar      1 <0>         0.0273
     12 C10         1.1315   -3.5067   -2.2759 C.ar      1 <0>         0.2064
     13 N3          2.2200   -2.6270   -2.3068 N.pl3     1 <0>        -0.8627
     14 F1          2.1987   -4.9210   -3.8555 F         1 <0>        -0.1352
     15 C11        -0.0058   -0.3268   -2.5278 C.3       1 <0>        -0.0768
     16 H1          1.0042    1.8801    0.0026 H         1 <0>         0.0685
     17 H2         -0.5455    1.8639   -0.8728 H         1 <0>         0.0686
     18 H3         -0.5286    1.8543    0.9071 H         1 <0>         0.0716
     19 H4          0.0488   -2.9033    1.3607 H         1 <0>         0.2077
     20 H5         -1.8885   -3.9031   -0.7983 H         1 <0>         0.1373
     21 H6         -1.8672   -5.9236   -2.2009 H         1 <0>         0.1422
     22 H7          0.0642   -6.4057   -3.6464 H         1 <0>         0.1440
     23 H8          2.2147   -1.8293   -1.7548 H         1 <0>         0.4057
     24 H9          2.9795   -2.8151   -2.8800 H         1 <0>         0.4075
     25 H10         1.0184   -0.2014   -2.8789 H         1 <0>         0.0708
     26 H11        -0.5126   -1.0698   -3.1435 H         1 <0>         0.0644
     27 H12        -0.5332    0.6245   -2.5986 H         1 <0>         0.0841
@<TRIPOS>BOND
     1    1    2 1
     2    1   16 1
     3    1   17 1
     4    1   18 1
     5    2    6 1
     6    2    3 2
     7    3    4 1
     8    3   15 1
     9    4    5 1
    10    4    7 1
    11    5    6 2
    12    5   19 1
    13    7   12 ar
    14    7    8 ar
    15    8    9 ar
    16    8   20 1
    17    9   10 ar
    18    9   21 1
    19   10   11 ar
    20   10   22 1
    21   11   12 ar
    22   11   14 1
    23   12   13 1
    24   13   23 1
    25   13   24 1
    26   15   25 1
    27   15   26 1
    28   15   27 1
@<TRIPOS>MOLECULE
ZINC04023779
   29    31     0     0     0
SMALL
USER_CHARGES
BLAHamine
@<TRIPOS>ATOM
      1 C1          1.2780    0.0073    1.1635 C.3       1 <0>        -0.1664
      2 C2         -0.1904   -0.5209    1.0671 C.3       1 <0>        -0.1633
      3 C3         -0.7314    0.1770   -0.1646 C.3       1 <0>        -0.1149
      4 H1         -0.3452   -0.3461   -1.0755 H         1 <0>         0.1224
      5 C4         -2.1565    0.6278   -0.4111 C.3       1 <0>        -0.1073
      6 H2         -2.8607   -0.1692   -0.6840 H         1 <0>         0.1226
      7 C5         -2.7248    1.6546    0.5836 C.3       1 <0>        -0.1431
      8 C6         -1.9679    2.9813    0.3121 C.3       1 <0>        -0.1651
      9 C7         -0.8569    2.5563   -0.7153 C.3       1 <0>        -0.0922
     10 H3         -0.3262    3.3544   -1.2511 H         1 <0>         0.1371
     11 C8         -1.7983    1.6294   -1.6016 C.3       1 <0>        -0.1215
     12 C9         -0.0193    1.5701    0.0107 C.3       1 <0>         0.0727
     13 C10         1.4040    1.1478    0.0860 C.3       1 <0>        -0.1281
     14 H4          1.4985    0.3780    2.1581 H         1 <0>         0.0955
     15 H5          1.9711   -0.8032    0.9156 H         1 <0>         0.1111
     16 H6         -0.7613   -0.3564    1.9660 H         1 <0>         0.0854
     17 H7         -0.1561   -1.6102    0.8839 H         1 <0>         0.1041
     18 H8         -3.7934    1.8023    0.3825 H         1 <0>         0.1043
     19 H9         -2.6058    1.3251    1.6089 H         1 <0>         0.0722
     20 H10        -2.6692    3.6849   -0.1891 H         1 <0>         0.1026
     21 H11        -1.6156    3.4818    1.1977 H         1 <0>         0.0837
     22 H12        -1.2501    1.1346   -2.3985 H         1 <0>         0.0880
     23 H13        -2.6745    2.1629   -1.9601 H         1 <0>         0.0961
     24 H14         1.7408    0.7572   -0.8701 H         1 <0>         0.1176
     25 H15         2.0286    1.9631    0.4402 H         1 <0>         0.1025
     26 H16        -0.2718    2.7326    1.6748 H         1 <0>         0.4141
     27 H17        -1.1786    1.3385    1.6800 H         1 <0>         0.4262
     28 N1         -0.2757    1.7422    1.4363 N.4       1 <0>        -0.6837
     29 H18         0.4598    1.2658    1.9714 H         1 <0>         0.4272
@<TRIPOS>BOND
     1    1   13 1
     2    1    2 1
     3    1   14 1
     4    1   15 1
     5    2    3 1
     6    2   16 1
     7    2   17 1
     8    3    4 1
     9    3   12 1
    10    3    5 1
    11    5    6 1
    12    5   11 1
    13    5    7 1
    14    7    8 1
    15    7   18 1
    16    7   19 1
    17    8    9 1
    18    8   20 1
    19    8   21 1
    20    9   10 1
    21    9   11 1
    22    9   12 1
    23   11   22 1
    24   11   23 1
    25   12   13 1
    26   12   28 1
    27   13   24 1
    28   13   25 1
    29   26   28 1
    30   27   28 1
    31   28   29 1
@<TRIPOS>MOLECULE
ZINC13476782
   22    22     0     0     0
SMALL
USER_CHARGES
(5S)-4,5-dimethyl-5,6-dihydropyridin-2-amine
@<TRIPOS>ATOM
      1 C1          1.4230    1.6146   -0.0029 C.3       1 <0>        -0.1532
      2 C2         -0.0127    1.0858    0.0080 C.3       1 <0>        -0.1066
      3 H1         -0.0086   -0.0142    0.0144 H         1 <0>         0.1318
      4 C3         -0.7501    1.5912   -1.2313 C.3       1 <0>         0.0948
      5 N1         -0.9845    3.0305   -1.1294 N.pl3     1 <0>        -0.6456
      6 C4         -1.2473    3.5868    0.0184 C.cat     1 <0>         0.5719
      7 C5         -1.3016    2.7657    1.2427 C.2       1 <0>        -0.2339
      8 C6         -0.7166    1.5711    1.2494 C.2       1 <0>         0.0234
      9 C7         -0.7568    0.7113    2.4865 C.3       1 <0>        -0.1445
     10 N2         -1.4747    4.9453    0.0894 N.pl3     1 <0>        -0.8225
     11 H2          1.9372    1.2607   -0.9087 H         1 <0>         0.0811
     12 H3          1.9553    1.2487    0.8875 H         1 <0>         0.0784
     13 H4          1.4087    2.7145    0.0046 H         1 <0>         0.0548
     14 H5         -0.1442    1.3883   -2.1267 H         1 <0>         0.1275
     15 H6         -1.7174    1.0748   -1.3184 H         1 <0>         0.1063
     16 H7         -1.8178    3.1304    2.1430 H         1 <0>         0.1728
     17 H8         -1.3114    1.2349    3.2791 H         1 <0>         0.0853
     18 H9          0.2697    0.5117    2.8278 H         1 <0>         0.0977
     19 H10        -1.2580   -0.2403    2.2555 H         1 <0>         0.0987
     20 H11        -1.6967    5.4159    1.0586 H         1 <0>         0.4715
     21 H12        -1.4340    5.5582   -0.8231 H         1 <0>         0.4514
     22 H13        -0.9363    3.6452   -2.0403 H         1 <0>         0.4589
@<TRIPOS>BOND
     1    1    2 1
     2    1   11 1
     3    1   12 1
     4    1   13 1
     5    2    3 1
     6    2    8 1
     7    2    4 1
     8    4    5 1
     9    4   14 1
    10    4   15 1
    11    5    6 2
    12    5   22 1
    13    6    7 1
    14    6   10 1
    15    7    8 2
    16    7   16 1
    17    8    9 1
    18    9   17 1
    19    9   18 1
    20    9   19 1
    21   10   20 1
    22   10   21 1
@<TRIPOS>MOLECULE
ZINC38121142
   34    34     0     0     0
SMALL
USER_CHARGES

@<TRIPOS>ATOM
      1 C1          0.6772   -0.7792   -1.1726 C.3       1 <0>        -0.0579
      2 N1          0.0275   -0.1018   -0.0426 N.4       1 <0>        -0.5049
      3 C2         -1.4123   -0.4127   -0.0457 C.3       1 <0>         0.0822
      4 C3         -2.1020    0.4204    1.0334 C.3       1 <0>        -0.1305
      5 C4         -2.8492   -0.4318    2.0614 C.3       1 <0>        -0.1372
      6 C5         -2.0041   -0.4855    3.3506 C.3       1 <0>        -0.1298
      7 C6         -0.7945   -1.3852    3.1246 C.3       1 <0>        -0.1178
      8 C7         -1.2007   -2.6624    2.4031 C.3       1 <0>        -0.1334
      9 C8         -0.6958   -2.6468    0.9654 C.3       1 <0>        -0.1308
     10 C9         -1.6562   -1.9031    0.0518 C.3       1 <0>        -0.1432
     11 C10        -1.9646    0.0659   -1.4102 C.3       1 <0>         0.0487
     12 O1         -1.6331    1.4427   -1.6018 O.3       1 <0>        -0.5808
     13 H1          1.7566   -0.6431   -1.1060 H         1 <0>         0.1272
     14 H2          0.4425   -1.8432   -1.1421 H         1 <0>         0.1242
     15 H3          0.3145   -0.3539   -2.1084 H         1 <0>         0.1257
     16 H4          0.4386   -0.4206    0.8220 H         1 <0>         0.4207
     17 H5         -1.3527    1.0269    1.5506 H         1 <0>         0.0838
     18 H6         -2.8165    1.0987    0.5541 H         1 <0>         0.1028
     19 H7         -3.7935    0.0743    2.3072 H         1 <0>         0.0757
     20 H8         -3.0686   -1.4186    1.7103 H         1 <0>         0.0926
     21 H9         -1.6780    0.5229    3.5996 H         1 <0>         0.0696
     22 H10        -2.6190   -0.8838    4.1563 H         1 <0>         0.0759
     23 H11        -0.0402   -0.8518    2.5450 H         1 <0>         0.0387
     24 H12        -0.3562   -1.6446    4.0954 H         1 <0>         0.0735
     25 H13        -0.7544   -3.5208    2.9241 H         1 <0>         0.0730
     26 H14        -2.2813   -2.7883    2.4246 H         1 <0>         0.0831
     27 H15         0.3123   -2.2498    0.9281 H         1 <0>         0.0606
     28 H16        -0.6344   -3.6943    0.6171 H         1 <0>         0.0885
     29 H17        -2.6898   -2.1259    0.3110 H         1 <0>         0.1216
     30 H18        -1.5273   -2.3276   -0.9694 H         1 <0>         0.0854
     31 H19        -1.5230   -0.5288   -2.2098 H         1 <0>         0.0737
     32 H20        -3.0481   -0.0524   -1.4253 H         1 <0>         0.0918
     33 H21        -1.9487    1.8104   -2.4386 H         1 <0>         0.4111
     34 H22         0.1565    0.8952   -0.1288 H         1 <0>         0.4362
@<TRIPOS>BOND
     1    1    2 1
     2    1   13 1
     3    1   14 1
     4    1   15 1
     5    2    3 1
     6    2   16 1
     7    2   34 1
     8    3   10 1
     9    3    4 1
    10    3   11 1
    11    4    5 1
    12    4   17 1
    13    4   18 1
    14    5    6 1
    15    5   19 1
    16    5   20 1
    17    6    7 1
    18    6   21 1
    19    6   22 1
    20    7    8 1
    21    7   23 1
    22    7   24 1
    23    8    9 1
    24    8   25 1
    25    8   26 1
    26    9   10 1
    27    9   27 1
    28    9   28 1
    29   10   29 1
    30   10   30 1
    31   11   12 1
    32   11   31 1
    33   11   32 1
    34   12   33 1
@<TRIPOS>MOLECULE
ZINC43735512
   35    37     0     0     0
SMALL
USER_CHARGES

@<TRIPOS>ATOM
      1 C1         -0.1073    1.5209    0.0614 C.3       1 <0>        -0.1838
      2 C2          0.0021   -0.0041    0.0020 C.3       1 <0>         0.0208
      3 H1          0.5518   -0.2943   -0.8933 H         1 <0>         0.1513
      4 C3          0.7421   -0.5109    1.2415 C.3       1 <0>        -0.1061
      5 H2          0.2939   -0.0938    2.1434 H         1 <0>         0.1011
      6 C4          2.2260   -0.1320    1.1640 C.3       1 <0>        -0.0655
      7 H3          2.2795    0.9247    0.9021 H         1 <0>         0.0758
      8 C5          2.7744   -0.2809    2.5762 C.3       1 <0>        -0.1139
      9 C6          2.6141   -1.7045    3.0511 C.3       1 <0>        -0.1158
     10 C7          1.8188   -2.6163    2.1566 C.3       1 <0>        -0.0801
     11 H4          1.4175   -3.4395    2.7477 H         1 <0>         0.0778
     12 C8          0.7035   -2.0479    1.2915 C.3       1 <0>        -0.0905
     13 H5         -0.2739   -2.4127    1.6072 H         1 <0>         0.0807
     14 C9          1.0446   -2.4510   -0.1782 C.3       1 <0>        -0.1550
     15 C10         2.5963   -2.3475   -0.1171 C.3       1 <0>        -0.0881
     16 H6          3.0723   -2.7746   -0.9998 H         1 <0>         0.0916
     17 C11         2.8838   -3.1746    1.1554 C.3       1 <0>        -0.1291
     18 C12         2.9863   -0.9000    0.1162 C.3       1 <0>        -0.1107
     19 N1         -1.3442   -0.5904   -0.0384 N.4       1 <0>        -0.6385
     20 H7          0.8916    1.9559    0.0913 H         1 <0>         0.1076
     21 H8         -0.6345    1.8819   -0.8217 H         1 <0>         0.0835
     22 H9         -0.6571    1.8111    0.9567 H         1 <0>         0.0826
     23 H10         3.8315   -0.0150    2.5829 H         1 <0>         0.0727
     24 H11         2.2324    0.3864    3.2462 H         1 <0>         0.0689
     25 H12         3.6078   -2.1344    3.1768 H         1 <0>         0.0717
     26 H13         2.1330   -1.6840    4.0290 H         1 <0>         0.0576
     27 H14         0.7219   -3.4689   -0.3967 H         1 <0>         0.0837
     28 H15         0.6263   -1.7418   -0.8926 H         1 <0>         0.0670
     29 H16         3.8941   -2.9927    1.5217 H         1 <0>         0.0765
     30 H17         2.7224   -4.2363    0.9690 H         1 <0>         0.0692
     31 H18         2.8544   -0.3882   -0.8370 H         1 <0>         0.0587
     32 H19         4.0451   -0.8585    0.3718 H         1 <0>         0.0762
     33 H20        -1.8322   -0.2561   -0.8558 H         1 <0>         0.4353
     34 H21        -1.2721   -1.5960   -0.0775 H         1 <0>         0.4332
     35 H22        -1.8531   -0.3217    0.7904 H         1 <0>         0.4336
@<TRIPOS>BOND
     1    1    2 1
     2    1   20 1
     3    1   21 1
     4    1   22 1
     5    2    3 1
     6    2    4 1
     7    2   19 1
     8    4    5 1
     9    4   12 1
    10    4    6 1
    11    6    7 1
    12    6   18 1
    13    6    8 1
    14    8    9 1
    15    8   23 1
    16    8   24 1
    17    9   10 1
    18    9   25 1
    19    9   26 1
    20   10   11 1
    21   10   17 1
    22   10   12 1
    23   12   13 1
    24   12   14 1
    25   14   15 1
    26   14   27 1
    27   14   28 1
    28   15   16 1
    29   15   17 1
    30   15   18 1
    31   17   29 1
    32   17   30 1
    33   18   31 1
    34   18   32 1
    35   19   33 1
    36   19   34 1
    37   19   35 1
@<TRIPOS>MOLECULE
ZINC31996489
   36    37     0     0     0
SMALL
USER_CHARGES

@<TRIPOS>ATOM
      1 C1         -0.0188    1.5382    0.0105 C.3       1 <0>        -0.1213
      2 C2          1.4013    2.0356   -0.0004 C.3       1 <0>        -0.1224
      3 C3          1.9100    2.3353   -1.4234 C.3       1 <0>        -0.1188
      4 C4          1.4803    1.2685   -2.4486 C.3       1 <0>        -0.1161
      5 C5          1.5981   -0.1306   -1.9073 C.3       1 <0>         0.0794
      6 C6          0.2309   -0.5484   -1.3282 C.3       1 <0>        -0.1076
      7 C7          0.0021   -0.0041    0.0020 C.3       1 <0>        -0.1225
      8 N1          1.9767   -1.0483   -2.9900 N.3       1 <0>        -0.5095
      9 C8          3.3091   -0.6966   -3.5444 C.3       1 <0>         0.0312
     10 C9          3.7588   -2.0044   -4.2429 C.3       1 <0>        -0.1418
     11 C10         3.2347   -3.1032   -3.2901 C.3       1 <0>         0.0143
     12 H1          4.0282   -3.4321   -2.6190 H         1 <0>         0.1492
     13 C11         2.1011   -2.4348   -2.4904 C.3       1 <0>         0.0131
     14 N2          2.7156   -4.2411   -4.0607 N.4       1 <0>        -0.6312
     15 H2         -0.5241    1.8926    0.9090 H         1 <0>         0.0674
     16 H3         -0.5411    1.9022   -0.8743 H         1 <0>         0.0687
     17 H4          1.4602    2.9471    0.5945 H         1 <0>         0.0642
     18 H5          2.0432    1.2796    0.4517 H         1 <0>         0.0573
     19 H6          1.5208    3.3032   -1.7393 H         1 <0>         0.0674
     20 H7          2.9987    2.3860   -1.4041 H         1 <0>         0.0586
     21 H8          0.4441    1.4504   -2.7335 H         1 <0>         0.0717
     22 H9          2.1086    1.3578   -3.3348 H         1 <0>         0.0674
     23 H10         2.3523   -0.1567   -1.1208 H         1 <0>         0.0564
     24 H11        -0.5570   -0.1963   -1.9941 H         1 <0>         0.0719
     25 H12         0.1870   -1.6363   -1.2768 H         1 <0>         0.0568
     26 H13         0.7942   -0.3500    0.6661 H         1 <0>         0.0588
     27 H14        -0.9540   -0.3721    0.3744 H         1 <0>         0.0669
     28 H15         3.2232    0.1153   -4.2665 H         1 <0>         0.1061
     29 H16         4.0003   -0.4303   -2.7448 H         1 <0>         0.0640
     30 H17         3.2977   -2.0946   -5.2265 H         1 <0>         0.0991
     31 H18         4.8453   -2.0467   -4.3198 H         1 <0>         0.1065
     32 H19         2.3503   -2.4262   -1.4293 H         1 <0>         0.0843
     33 H20         1.1666   -2.9725   -2.6507 H         1 <0>         0.0991
     34 H21         3.4592   -4.6399   -4.6139 H         1 <0>         0.4377
     35 H22         2.3554   -4.9395   -3.4278 H         1 <0>         0.4366
     36 H23         1.9755   -3.9254   -4.6696 H         1 <0>         0.4371
@<TRIPOS>BOND
     1    1    7 1
     2    1    2 1
     3    1   15 1
     4    1   16 1
     5    2    3 1
     6    2   17 1
     7    2   18 1
     8    3    4 1
     9    3   19 1
    10    3   20 1
    11    4    5 1
    12    4   21 1
    13    4   22 1
    14    5    6 1
    15    5    8 1
    16    5   23 1
    17    6    7 1
    18    6   24 1
    19    6   25 1
    20    7   26 1
    21    7   27 1
    22    8   13 1
    23    8    9 1
    24    9   10 1
    25    9   28 1
    26    9   29 1
    27   10   11 1
    28   10   30 1
    29   10   31 1
    30   11   12 1
    31   11   13 1
    32   11   14 1
    33   13   32 1
    34   13   33 1
    35   14   34 1
    36   14   35 1
    37   14   36 1
@<TRIPOS>MOLECULE
ZINC02578546
   23    23     0     0     0
SMALL
USER_CHARGES
ethyl 5-amino-3-methyl-thiophene-2-carboxylate
@<TRIPOS>ATOM
      1 C1         -0.7334    1.9182    1.2687 C.3       1 <0>        -0.1525
      2 C2         -0.0173    1.4248    0.0099 C.3       1 <0>         0.0638
      3 O1          0.0021   -0.0041    0.0020 O.3       1 <0>        -0.3556
      4 C3          0.6018   -0.6031   -1.0486 C.2       1 <0>         0.5603
      5 O2          1.0947    0.0715   -1.9338 O.2       1 <0>        -0.5107
      6 C4          0.6573   -2.0147   -1.1209 C.2       1 <0>        -0.3116
      7 C5          1.2215   -2.8172   -2.1048 C.2       1 <0>         0.0506
      8 C6          1.1387   -4.1715   -1.9333 C.2       1 <0>        -0.2998
      9 C7          0.5078   -4.6610   -0.8072 C.2       1 <0>         0.1557
     10 S1          0.0279   -3.2218    0.0318 S.3       1 <0>         0.1689
     11 N1          0.3116   -5.9804   -0.4354 N.pl3     1 <0>        -0.8075
     12 C8          1.8966   -2.2195   -3.3123 C.3       1 <0>        -0.1164
     13 H1         -1.7560    1.5409    1.2764 H         1 <0>         0.0662
     14 H2         -0.2063    1.5571    2.1517 H         1 <0>         0.0662
     15 H3         -0.7482    3.0081    1.2747 H         1 <0>         0.0799
     16 H4          1.0053    1.8021    0.0021 H         1 <0>         0.0677
     17 H5         -0.5445    1.7859   -0.8732 H         1 <0>         0.0677
     18 H6          1.5594   -4.8453   -2.6650 H         1 <0>         0.1387
     19 H7          0.6385   -6.6974   -1.0009 H         1 <0>         0.4144
     20 H8         -0.1528   -6.1875    0.3907 H         1 <0>         0.4134
     21 H9          2.9543   -2.0658   -3.0982 H         1 <0>         0.0804
     22 H10         1.7922   -2.8972   -4.1596 H         1 <0>         0.0686
     23 H11         1.4318   -1.2633   -3.5524 H         1 <0>         0.0917
@<TRIPOS>BOND
     1    1    2 1
     2    1   13 1
     3    1   14 1
     4    1   15 1
     5    2    3 1
     6    2   16 1
     7    2   17 1
     8    3    4 1
     9    4    5 2
    10    4    6 1
    11    6   10 1
    12    6    7 2
    13    7    8 1
    14    7   12 1
    15    8    9 2
    16    8   18 1
    17    9   10 1
    18    9   11 1
    19   11   19 1
    20   11   20 1
    21   12   21 1
    22   12   22 1
    23   12   23 1
@<TRIPOS>MOLECULE
ZINC20252533
   31    32     0     0     0
SMALL
USER_CHARGES
2-[(1S)-1-methylbutyl]-1,3-benzoxazol-5-amine
@<TRIPOS>ATOM
      1 C1         -1.2117   -6.3244    2.5469 C.3       1 <0>        -0.1556
      2 C2         -1.6005   -5.5201    1.3048 C.3       1 <0>        -0.1249
      3 C3         -0.7574   -4.2451    1.2382 C.3       1 <0>        -0.1178
      4 C4         -1.1462   -3.4408   -0.0038 C.3       1 <0>        -0.0015
      5 H1         -2.2267   -3.2347    0.0073 H         1 <0>         0.1175
      6 C5         -0.7806   -4.2339   -1.2601 C.3       1 <0>        -0.1538
      7 C6         -0.4052   -2.1286   -0.0048 C.2       1 <0>         0.2623
      8 N1         -0.9684   -0.9579    0.0066 N.2       1 <0>        -0.4909
      9 C7          0.0021   -0.0041    0.0020 C.ar      1 <0>         0.0743
     10 C8         -0.0169    1.3914    0.0097 C.ar      1 <0>        -0.1663
     11 C9          1.1754    2.0923    0.0021 C.ar      1 <0>         0.2298
     12 C10         2.3904    1.4107   -0.0132 C.ar      1 <0>        -0.1667
     13 C11         2.4172    0.0327   -0.0208 C.ar      1 <0>        -0.0424
     14 C12         1.2295   -0.6834   -0.0134 C.ar      1 <0>        -0.0533
     15 O1          0.9309   -2.0023   -0.0172 O.3       1 <0>        -0.2119
     16 N2          1.1613    3.4911    0.0093 N.pl3     1 <0>        -0.8958
     17 H2         -1.8179   -7.2410    2.5947 H         1 <0>         0.0571
     18 H3         -1.3915   -5.7185    3.4472 H         1 <0>         0.0548
     19 H4         -0.1461   -6.5919    2.4918 H         1 <0>         0.0553
     20 H5         -1.4207   -6.1260    0.4045 H         1 <0>         0.0694
     21 H6         -2.6661   -5.2526    1.3599 H         1 <0>         0.0666
     22 H7         -0.9372   -3.6392    2.1385 H         1 <0>         0.0697
     23 H8          0.3082   -4.5126    1.1831 H         1 <0>         0.0736
     24 H9         -1.0602   -3.6556   -2.1531 H         1 <0>         0.0630
     25 H10        -1.3215   -5.1917   -1.2594 H         1 <0>         0.0794
     26 H11         0.3027   -4.4246   -1.2710 H         1 <0>         0.0659
     27 H12        -0.9579    1.9214    0.0170 H         1 <0>         0.1303
     28 H13         3.3170    1.9655   -0.0194 H         1 <0>         0.1373
     29 H14         3.3626   -0.4892   -0.0330 H         1 <0>         0.1347
     30 H15         2.1083    4.0507    0.0033 H         1 <0>         0.4198
     31 H16         0.2032    4.0314    0.0210 H         1 <0>         0.4200
@<TRIPOS>BOND
     1    1    2 1
     2    1   17 1
     3    1   18 1
     4    1   19 1
     5    2    3 1
     6    2   20 1
     7    2   21 1
     8    3    4 1
     9    3   22 1
    10    3   23 1
    11    4    5 1
    12    4    6 1
    13    4    7 1
    14    6   24 1
    15    6   25 1
    16    6   26 1
    17    7   15 1
    18    7    8 2
    19    8    9 1
    20    9   14 ar
    21    9   10 ar
    22   10   11 ar
    23   10   27 1
    24   11   12 ar
    25   11   16 1
    26   12   13 ar
    27   12   28 1
    28   13   14 ar
    29   13   29 1
    30   14   15 1
    31   16   30 1
    32   16   31 1
@<TRIPOS>MOLECULE
ZINC39056735
   23    23     0     0     0
SMALL
USER_CHARGES

@<TRIPOS>ATOM
      1 C1         -0.0187    1.5258    0.0104 C.3       1 <0>        -0.1492
      2 C2          0.0021   -0.0041    0.0020 C.3       1 <0>        -0.1402
      3 C3          0.7421   -0.5109    1.2415 C.3       1 <0>         0.0818
      4 N1          0.7619   -1.9757    1.2335 N.pl3     1 <0>        -0.4025
      5 C4         -0.1287   -2.7835    1.8659 C.2       1 <0>        -0.0173
      6 C5          0.2103   -4.0799    1.6311 C.2       1 <0>         0.1125
      7 C6          1.3533   -4.0844    0.8234 C.2       1 <0>        -0.1265
      8 C7          1.6834   -2.7630    0.5784 C.2       1 <0>        -0.0693
      9 C8          2.7721   -2.3037   -0.2008 C.2       1 <0>         0.4708
     10 O1          3.5191   -3.1018   -0.7312 O.2       1 <0>        -0.4122
     11 Cl1         3.0401   -0.6000   -0.3988 Cl        1 <0>        -0.1249
     12 N2         -0.4675   -5.2143    2.1143 N.pl3     1 <0>        -0.8764
     13 H1          1.0039    1.9031    0.0027 H         1 <0>         0.0582
     14 H2         -0.5459    1.8868   -0.8726 H         1 <0>         0.0641
     15 H3         -0.5289    1.8773    0.9072 H         1 <0>         0.0589
     16 H4         -1.0205   -0.3814    0.0098 H         1 <0>         0.0711
     17 H5          0.5123   -0.3556   -0.8948 H         1 <0>         0.0726
     18 H6          1.7647   -0.1336    1.2338 H         1 <0>         0.1078
     19 H7          0.2319   -0.1594    2.1383 H         1 <0>         0.0973
     20 H8         -0.9682   -2.4509    2.4583 H         1 <0>         0.1726
     21 H9          1.8766   -4.9551    0.4568 H         1 <0>         0.1529
     22 H10        -1.2552   -5.1084    2.6705 H         1 <0>         0.3977
     23 H11        -0.1472   -6.1023    1.8913 H         1 <0>         0.4003
@<TRIPOS>BOND
     1    1    2 1
     2    1   13 1
     3    1   14 1
     4    1   15 1
     5    2    3 1
     6    2   16 1
     7    2   17 1
     8    3    4 1
     9    3   18 1
    10    3   19 1
    11    4    8 1
    12    4    5 1
    13    5    6 2
    14    5   20 1
    15    6    7 1
    16    6   12 1
    17    7    8 2
    18    7   21 1
    19    8    9 1
    20    9   10 2
    21    9   11 1
    22   12   22 1
    23   12   23 1
@<TRIPOS>MOLECULE
ZINC43542940
   24    24     0     0     0
SMALL
USER_CHARGES

@<TRIPOS>ATOM
      1 C1         -0.0187    1.5258    0.0104 C.3       1 <0>        -0.1572
      2 C2          0.0021   -0.0041    0.0020 C.3       1 <0>        -0.1048
      3 C3          0.7421   -0.5109    1.2415 C.3       1 <0>         0.0343
      4 H1          0.2852   -0.0874    2.1360 H         1 <0>         0.1389
      5 C4          0.6587   -1.9795    1.2965 C.1       1 <0>         0.2103
      6 N1          0.5944   -3.1129    1.3388 N.1       1 <0>        -0.4075
      7 S1          2.4825   -0.0069    1.1550 S.3       1 <0>        -0.0417
      8 C5          3.1544   -0.5277    2.6984 C.ar      1 <0>         0.0350
      9 C6          4.5024   -0.2906    2.9835 C.ar      1 <0>         0.1970
     10 C7          5.0147   -0.7077    4.2042 C.ar      1 <0>        -0.1446
     11 C8          4.1625   -1.3465    5.0960 C.ar      1 <0>        -0.1183
     12 C9          2.8429   -1.5465    4.7466 C.ar      1 <0>         0.0547
     13 N2          2.3781   -1.1353    3.5807 N.ar      1 <0>        -0.4499
     14 N3          5.3228    0.3570    2.0522 N.pl3     1 <0>        -0.8622
     15 H2          1.0039    1.9031    0.0027 H         1 <0>         0.0681
     16 H3         -0.5459    1.8868   -0.8726 H         1 <0>         0.0678
     17 H4         -0.5289    1.8773    0.9072 H         1 <0>         0.0636
     18 H5         -1.0205   -0.3814    0.0098 H         1 <0>         0.0915
     19 H6          0.5123   -0.3556   -0.8948 H         1 <0>         0.0820
     20 H7          6.0518   -0.5398    4.4546 H         1 <0>         0.1395
     21 H8          4.5296   -1.6837    6.0541 H         1 <0>         0.1391
     22 H9          2.1788   -2.0429    5.4386 H         1 <0>         0.1569
     23 H10         4.9570    0.6450    1.2013 H         1 <0>         0.4031
     24 H11         6.2570    0.5177    2.2579 H         1 <0>         0.4044
@<TRIPOS>BOND
     1    1    2 1
     2    1   15 1
     3    1   16 1
     4    1   17 1
     5    2    3 1
     6    2   18 1
     7    2   19 1
     8    3    4 1
     9    3    5 1
    10    3    7 1
    11    5    6 3
    12    7    8 1
    13    8   13 ar
    14    8    9 ar
    15    9   10 ar
    16    9   14 1
    17   10   11 ar
    18   10   20 1
    19   11   12 ar
    20   11   21 1
    21   12   13 ar
    22   12   22 1
    23   14   23 1
    24   14   24 1
@<TRIPOS>MOLECULE
ZINC52755970
   27    28     0     0     0
SMALL
USER_CHARGES

@<TRIPOS>ATOM
      1 C1         -0.0167    1.3789    0.0096 C.ar      1 <0>        -0.0957
      2 C2          1.1692    2.0901    0.0021 C.ar      1 <0>        -0.1091
      3 C3          2.3781    1.4219   -0.0134 C.ar      1 <0>        -0.1096
      4 C4          2.4026    0.0332   -0.0211 C.ar      1 <0>        -0.1282
      5 C5          1.2080   -0.6801   -0.0130 C.ar      1 <0>         0.1149
      6 C6          0.0021   -0.0041    0.0020 C.ar      1 <0>        -0.1341
      7 F1          1.2264   -2.0310   -0.0209 F         1 <0>        -0.1284
      8 S1          3.9424   -0.8230   -0.0415 S.3       1 <0>        -0.0859
      9 C7          5.1813    0.5021   -0.0472 C.3       1 <0>        -0.0552
     10 C8          6.5621   -0.1012   -0.0646 C.ar      1 <0>        -0.2042
     11 C9          7.2145   -0.3935    1.1198 C.ar      1 <0>        -0.0110
     12 C10         8.4855   -0.9485    1.0566 C.ar      1 <0>        -0.2338
     13 C11         9.0572   -1.1908   -0.1766 C.ar      1 <0>         0.1613
     14 N1          8.4116   -0.9014   -1.2903 N.ar      1 <0>        -0.5438
     15 C12         7.1957   -0.3770   -1.2718 C.ar      1 <0>         0.4250
     16 N2          6.5494   -0.0937   -2.4694 N.pl3     1 <0>        -0.8455
     17 H1         -0.9599    1.9046    0.0260 H         1 <0>         0.1370
     18 H2          1.1502    3.1699    0.0081 H         1 <0>         0.1340
     19 H3          3.3034    1.9788   -0.0200 H         1 <0>         0.1315
     20 H4         -0.9260   -0.5563    0.0082 H         1 <0>         0.1418
     21 H5          5.0449    1.1232   -0.9325 H         1 <0>         0.0913
     22 H6          5.0632    1.1137    0.8473 H         1 <0>         0.1010
     23 H7          6.7458   -0.1941    2.0721 H         1 <0>         0.1362
     24 H8          9.0218   -1.1880    1.9630 H         1 <0>         0.1367
     25 H9         10.0457   -1.6224   -0.2303 H         1 <0>         0.1598
     26 H10         5.6606    0.2946   -2.4608 H         1 <0>         0.4069
     27 H11         6.9873   -0.2843   -3.3137 H         1 <0>         0.4070
@<TRIPOS>BOND
     1    1    6 ar
     2    1    2 ar
     3    1   17 1
     4    2    3 ar
     5    2   18 1
     6    3    4 ar
     7    3   19 1
     8    4    5 ar
     9    4    8 1
    10    5    6 ar
    11    5    7 1
    12    6   20 1
    13    8    9 1
    14    9   10 1
    15    9   21 1
    16    9   22 1
    17   10   15 ar
    18   10   11 ar
    19   11   12 ar
    20   11   23 1
    21   12   13 ar
    22   12   24 1
    23   13   14 ar
    24   13   25 1
    25   14   15 ar
    26   15   16 1
    27   16   26 1
    28   16   27 1
@<TRIPOS>MOLECULE
ZINC04277339
   21    22     0     0     0
SMALL
USER_CHARGES
(5-bromobenzofuran-2-yl)methanamine
@<TRIPOS>ATOM
      1 C1         -5.5980   -2.0789    0.9320 C.ar      1 <0>        -0.0425
      2 C2         -4.4445   -1.6585    1.5589 C.ar      1 <0>        -0.1026
      3 C3         -3.3537   -1.2491    0.8030 C.ar      1 <0>         0.0889
      4 C4         -3.4415   -1.2690   -0.5992 C.ar      1 <0>        -0.1493
      5 C5         -4.6132   -1.6961   -1.2216 C.ar      1 <0>        -0.0261
      6 C6         -5.6843   -2.0989   -0.4531 C.ar      1 <0>        -0.1055
      7 Br1        -7.2778   -2.6798   -1.2892 Br        1 <0>        -0.0164
      8 C7         -2.1418   -0.7853   -1.0805 C.2       1 <0>        -0.1143
      9 C8         -1.4117   -0.5257    0.0127 C.2       1 <0>        -0.0707
     10 O1         -2.1212   -0.8034    1.1204 O.3       1 <0>        -0.1846
     11 C9          0.0021   -0.0041    0.0020 C.3       1 <0>         0.0949
     12 H1         -6.4432   -2.3962    1.5248 H         1 <0>         0.1565
     13 H2         -4.3888   -1.6480    2.6375 H         1 <0>         0.1506
     14 H3         -4.6815   -1.7113   -2.2993 H         1 <0>         0.1472
     15 H4         -1.8354   -0.6637   -2.1089 H         1 <0>         0.1743
     16 H5          0.5123   -0.3556   -0.8948 H         1 <0>         0.1654
     17 H6          0.5293   -0.3651    0.8851 H         1 <0>         0.1518
     18 H7          0.9191    1.8392    0.0032 H         1 <0>         0.4464
     19 H8         -0.5563    1.8234   -0.7642 H         1 <0>         0.4396
     20 N1         -0.0294    1.4689    0.0323 N.4       1 <0>        -0.6473
     21 H9         -0.4837    1.7790    0.8993 H         1 <0>         0.4439
@<TRIPOS>BOND
     1    1    6 ar
     2    1    2 ar
     3    1   12 1
     4    2    3 ar
     5    2   13 1
     6    3   10 1
     7    3    4 ar
     8    4    5 ar
     9    4    8 1
    10    5    6 ar
    11    5   14 1
    12    6    7 1
    13    8    9 2
    14    8   15 1
    15    9   10 1
    16    9   11 1
    17   11   16 1
    18   11   17 1
    19   11   20 1
    20   18   20 1
    21   19   20 1
    22   20   21 1
@<TRIPOS>MOLECULE
ZINC36889535
   42    42     0     0     0
SMALL
USER_CHARGES

@<TRIPOS>ATOM
      1 C1         -0.1446    1.8094    1.3415 C.3       1 <0>        -0.0889
      2 C2         -0.2490    0.3068    1.2928 C.2       1 <0>        -0.0735
      3 C3         -1.3203   -0.4832    1.5487 C.2       1 <0>        -0.1858
      4 C4         -1.1836   -1.8543    1.4393 C.2       1 <0>        -0.0671
      5 C5          0.0178   -2.3684    1.0793 C.2       1 <0>        -0.2683
      6 S1          1.0042   -0.8944    0.8756 S.3       1 <0>         0.0478
      7 C6          0.4160   -3.8100    0.8937 C.3       1 <0>         0.1378
      8 H1         -0.4768   -4.4172    0.7444 H         1 <0>         0.1593
      9 C7          1.1621   -4.2972    2.1375 C.3       1 <0>        -0.1399
     10 C8          1.4568   -5.7924    2.0024 C.3       1 <0>        -0.1031
     11 H2          1.9966   -5.9737    1.0729 H         1 <0>         0.0682
     12 C9          0.1407   -6.5725    1.9883 C.3       1 <0>        -0.1844
     13 C10         2.3101   -6.2530    3.1859 C.3       1 <0>        -0.1065
     14 C11         3.0508   -7.5382    2.8110 C.3       1 <0>        -0.0689
     15 C12         4.0537   -7.2417    1.6942 C.3       1 <0>        -0.1453
     16 C13         3.7950   -8.0737    4.0358 C.3       1 <0>        -0.1476
     17 C14         2.0443   -8.5845    2.3280 C.3       1 <0>        -0.1524
     18 N1          1.2911   -3.9290   -0.2801 N.4       1 <0>        -0.6386
     19 H3          0.8671    2.1122    1.0713 H         1 <0>         0.0813
     20 H4         -0.8543    2.2458    0.6388 H         1 <0>         0.0956
     21 H5         -0.3709    2.1569    2.3495 H         1 <0>         0.0962
     22 H6         -2.2666   -0.0478    1.8342 H         1 <0>         0.1498
     23 H7         -2.0214   -2.5062    1.6380 H         1 <0>         0.1437
     24 H8          2.0993   -3.7496    2.2368 H         1 <0>         0.0919
     25 H9          0.5463   -4.1266    3.0206 H         1 <0>         0.1164
     26 H10        -0.3321   -6.5050    2.9681 H         1 <0>         0.0692
     27 H11        -0.5238   -6.1504    1.2344 H         1 <0>         0.0488
     28 H12         0.3404   -7.6177    1.7524 H         1 <0>         0.0921
     29 H13         3.0332   -5.4768    3.4363 H         1 <0>         0.0687
     30 H14         1.6672   -6.4417    4.0456 H         1 <0>         0.0743
     31 H15         4.7707   -6.4963    2.0383 H         1 <0>         0.0572
     32 H16         4.5813   -8.1573    1.4271 H         1 <0>         0.0615
     33 H17         3.5235   -6.8602    0.8216 H         1 <0>         0.0468
     34 H18         3.0805   -8.2850    4.8314 H         1 <0>         0.0581
     35 H19         4.3226   -8.9894    3.7688 H         1 <0>         0.0600
     36 H20         4.5120   -7.3284    4.3799 H         1 <0>         0.0568
     37 H21         1.6663   -8.2991    1.3463 H         1 <0>         0.0603
     38 H22         2.5342   -9.5559    2.2604 H         1 <0>         0.0580
     39 H23         1.2154   -8.6440    3.0333 H         1 <0>         0.0618
     40 H24         0.7991   -3.6077   -1.1004 H         1 <0>         0.4394
     41 H25         2.1176   -3.3669   -0.1419 H         1 <0>         0.4319
     42 H26         1.5577   -4.8941   -0.4044 H         1 <0>         0.4375
@<TRIPOS>BOND
     1    1    2 1
     2    1   19 1
     3    1   20 1
     4    1   21 1
     5    2    6 1
     6    2    3 2
     7    3    4 1
     8    3   22 1
     9    4    5 2
    10    4   23 1
    11    5    6 1
    12    5    7 1
    13    7    8 1
    14    7    9 1
    15    7   18 1
    16    9   10 1
    17    9   24 1
    18    9   25 1
    19   10   11 1
    20   10   12 1
    21   10   13 1
    22   12   26 1
    23   12   27 1
    24   12   28 1
    25   13   14 1
    26   13   29 1
    27   13   30 1
    28   14   15 1
    29   14   16 1
    30   14   17 1
    31   15   31 1
    32   15   32 1
    33   15   33 1
    34   16   34 1
    35   16   35 1
    36   16   36 1
    37   17   37 1
    38   17   38 1
    39   17   39 1
    40   18   40 1
    41   18   41 1
    42   18   42 1
@<TRIPOS>MOLECULE
ZINC43126118
   31    31     0     0     0
SMALL
USER_CHARGES

@<TRIPOS>ATOM
      1 C1          0.3519    1.2745    0.5886 C.3       1 <0>        -0.1726
      2 C2          0.1957   -0.2317    0.3696 C.3       1 <0>        -0.1507
      3 C3         -1.2758   -0.5590    0.1076 C.3       1 <0>         0.0539
      4 H1         -1.6399    0.0449   -0.7236 H         1 <0>         0.1497
      5 C4         -1.4140   -2.0424   -0.2408 C.3       1 <0>        -0.0346
      6 H2         -0.9847   -2.6451    0.5595 H         1 <0>         0.1152
      7 C5         -2.8723   -2.3867   -0.4021 C.2       1 <0>        -0.1778
      8 C6         -3.4622   -3.3380    0.4088 C.2       1 <0>        -0.1738
      9 C7         -4.7760   -3.6243    0.2376 C.2       1 <0>        -0.1543
     10 S1         -5.2203   -2.5323   -1.1030 S.3       1 <0>         0.1059
     11 C8         -3.6263   -1.7641   -1.3408 C.2       1 <0>        -0.1559
     12 S2         -0.5371   -2.3836   -1.7917 S.3       1 <0>        -0.1969
     13 C9         -0.6135   -4.1889   -1.9510 C.3       1 <0>        -0.0852
     14 C10        -0.0047   -4.6089   -3.2904 C.3       1 <0>        -0.1431
     15 N1         -2.0650   -0.2629    1.3106 N.4       1 <0>        -0.6324
     16 H3          1.4002    1.5077    0.7753 H         1 <0>         0.0862
     17 H4          0.0136    1.8079   -0.2997 H         1 <0>         0.0736
     18 H5         -0.2468    1.5809    1.4464 H         1 <0>         0.0514
     19 H6          0.7944   -0.5381   -0.4882 H         1 <0>         0.1248
     20 H7          0.5339   -0.7650    1.2579 H         1 <0>         0.0911
     21 H8         -2.8849   -3.8459    1.1672 H         1 <0>         0.1386
     22 H9         -5.3937   -4.3302    0.7730 H         1 <0>         0.1946
     23 H10        -3.3375   -1.0020   -2.0494 H         1 <0>         0.1949
     24 H11        -0.0536   -4.6495   -1.1370 H         1 <0>         0.0868
     25 H12        -1.6529   -4.5139   -1.9065 H         1 <0>         0.0862
     26 H13        -0.5645   -4.1483   -4.1043 H         1 <0>         0.0689
     27 H14         1.0348   -4.2839   -3.3349 H         1 <0>         0.0689
     28 H15        -0.0506   -5.6937   -3.3861 H         1 <0>         0.0818
     29 H16        -1.9738    0.7153    1.5404 H         1 <0>         0.4373
     30 H17        -3.0354   -0.4788    1.1379 H         1 <0>         0.4346
     31 H18        -1.7279   -0.8220    2.0800 H         1 <0>         0.4330
@<TRIPOS>BOND
     1    1    2 1
     2    1   16 1
     3    1   17 1
     4    1   18 1
     5    2    3 1
     6    2   19 1
     7    2   20 1
     8    3    4 1
     9    3    5 1
    10    3   15 1
    11    5    6 1
    12    5    7 1
    13    5   12 1
    14    7   11 2
    15    7    8 1
    16    8    9 2
    17    8   21 1
    18    9   10 1
    19    9   22 1
    20   10   11 1
    21   11   23 1
    22   12   13 1
    23   13   14 1
    24   13   24 1
    25   13   25 1
    26   14   26 1
    27   14   27 1
    28   14   28 1
    29   15   29 1
    30   15   30 1
    31   15   31 1
@<TRIPOS>MOLECULE
ZINC53818489
   31    32     0     0     0
SMALL
USER_CHARGES

@<TRIPOS>ATOM
      1 C1         -0.0184    1.5028    0.0103 C.3       1 <0>        -0.1284
      2 C2          0.0021   -0.0041    0.0020 C.ar      1 <0>        -0.0645
      3 C3          0.0057   -0.6888   -1.1991 C.ar      1 <0>        -0.0920
      4 C4          0.0245   -2.0707   -1.2067 C.ar      1 <0>        -0.0984
      5 C5          0.0400   -2.7685   -0.0132 C.ar      1 <0>        -0.1287
      6 C6          0.0373   -2.0840    1.1875 C.ar      1 <0>        -0.1437
      7 C7          0.0229   -0.7015    1.1951 C.ar      1 <0>        -0.0895
      8 C8          0.0538   -2.8445    2.4885 C.3       1 <0>         0.0903
      9 H1         -0.3020   -2.1988    3.2913 H         1 <0>         0.1513
     10 C9          1.4820   -3.2997    2.7950 C.3       1 <0>        -0.0464
     11 C10         1.5206   -3.9524    4.1528 C.2       1 <0>        -0.2123
     12 C11         1.3455   -5.2561    4.4780 C.2       1 <0>        -0.1363
     13 C12         1.4253   -5.6328    5.8061 C.2       1 <0>        -0.1537
     14 C13         1.6767   -4.6853    6.7437 C.2       1 <0>        -0.0992
     15 S1          1.8167   -3.2095    5.7489 S.3       1 <0>         0.1383
     16 Cl1         1.8295   -4.8628    8.4639 Cl        1 <0>         0.0422
     17 N1         -0.8219   -4.0190    2.3802 N.4       1 <0>        -0.6365
     18 H2          1.0042    1.8801    0.0026 H         1 <0>         0.0820
     19 H3         -0.5455    1.8639   -0.8728 H         1 <0>         0.0766
     20 H4         -0.5286    1.8543    0.9071 H         1 <0>         0.0742
     21 H5         -0.0064   -0.1437   -2.1314 H         1 <0>         0.1363
     22 H6          0.0266   -2.6056   -2.1449 H         1 <0>         0.1368
     23 H7          0.0540   -3.8484   -0.0191 H         1 <0>         0.1209
     24 H8          0.0246   -0.1666    2.1333 H         1 <0>         0.1350
     25 H9          1.8056   -4.0149    2.0388 H         1 <0>         0.1143
     26 H10         2.1478   -2.4368    2.7876 H         1 <0>         0.1295
     27 H11         1.1461   -5.9901    3.7113 H         1 <0>         0.1429
     28 H12         1.2893   -6.6652    6.0924 H         1 <0>         0.1518
     29 H13        -0.4926   -4.6167    1.6370 H         1 <0>         0.4312
     30 H14        -0.8109   -4.5282    3.2512 H         1 <0>         0.4354
     31 H15        -1.7638   -3.7188    2.1780 H         1 <0>         0.4404
@<TRIPOS>BOND
     1    1    2 1
     2    1   18 1
     3    1   19 1
     4    1   20 1
     5    2    7 ar
     6    2    3 ar
     7    3    4 ar
     8    3   21 1
     9    4    5 ar
    10    4   22 1
    11    5    6 ar
    12    5   23 1
    13    6    7 ar
    14    6    8 1
    15    7   24 1
    16    8    9 1
    17    8   10 1
    18    8   17 1
    19   10   11 1
    20   10   25 1
    21   10   26 1
    22   11   15 1
    23   11   12 2
    24   12   13 1
    25   12   27 1
    26   13   14 2
    27   13   28 1
    28   14   15 1
    29   14   16 1
    30   17   29 1
    31   17   30 1
    32   17   31 1
@<TRIPOS>MOLECULE
ZINC61330037
   34    36     0     0     0
SMALL
USER_CHARGES

@<TRIPOS>ATOM
      1 C1          0.1852    1.2442    0.3140 C.2       1 <0>        -0.1740
      2 C2          1.4043    1.8156    0.4438 C.2       1 <0>        -0.1550
      3 S1          2.4867    0.3971    0.3552 S.3       1 <0>         0.1209
      4 C3          1.2372   -0.8438    0.1521 C.2       1 <0>        -0.1103
      5 C4          0.0741   -0.1377    0.1615 C.2       1 <0>        -0.1844
      6 C5         -1.2636   -0.8563    0.0115 C.3       1 <0>         0.1073
      7 H1         -1.6231   -0.7491   -1.0119 H         1 <0>         0.1418
      8 C6         -1.0659   -2.3383    0.3325 C.3       1 <0>        -0.1447
      9 C7          0.0804   -2.9084   -0.5076 C.3       1 <0>        -0.1084
     10 C8          1.4050   -2.3210    0.0032 C.3       1 <0>        -0.0585
     11 N1         -2.2418   -0.2748    0.9404 N.4       1 <0>        -0.3883
     12 C9         -1.7902   -0.4467    2.3452 C.3       1 <0>        -0.0032
     13 C10        -3.0805   -0.3336    3.1852 C.3       1 <0>        -0.1441
     14 C11        -4.2223   -0.7103    2.2187 C.3       1 <0>         0.0720
     15 H2         -4.9122    0.1257    2.1037 H         1 <0>         0.0745
     16 C12        -3.5258   -1.0193    0.8761 C.3       1 <0>        -0.0108
     17 N2         -4.9364   -1.8962    2.7102 N.3       1 <0>        -0.8394
     18 H3         -0.7032    1.8580    0.3330 H         1 <0>         0.1278
     19 H4          1.6574    2.8582    0.5679 H         1 <0>         0.1967
     20 H5         -0.8295   -2.4507    1.3907 H         1 <0>         0.0926
     21 H6         -1.9836   -2.8823    0.1089 H         1 <0>         0.0961
     22 H7          0.1002   -3.9939   -0.4103 H         1 <0>         0.0981
     23 H8         -0.0616   -2.6352   -1.5532 H         1 <0>         0.0812
     24 H9          2.1998   -2.5302   -0.7127 H         1 <0>         0.1000
     25 H10         1.6542   -2.7615    0.9686 H         1 <0>         0.0992
     26 H11        -1.3333   -1.4270    2.4804 H         1 <0>         0.1374
     27 H12        -1.0886    0.3416    2.6182 H         1 <0>         0.1314
     28 H13        -3.0489   -1.0297    4.0234 H         1 <0>         0.1193
     29 H14        -3.2100    0.6873    3.5446 H         1 <0>         0.0991
     30 H15        -4.1310   -0.6621    0.0429 H         1 <0>         0.1334
     31 H16        -3.3405   -2.0892    0.7813 H         1 <0>         0.1467
     32 H17        -5.3564   -1.7182    3.6103 H         1 <0>         0.3647
     33 H18        -5.6280   -2.2041    2.0431 H         1 <0>         0.3565
     34 H19        -2.3891    0.7015    0.7322 H         1 <0>         0.4246
@<TRIPOS>BOND
     1    1    5 1
     2    1    2 2
     3    1   18 1
     4    2    3 1
     5    2   19 1
     6    3    4 1
     7    4   10 1
     8    4    5 2
     9    5    6 1
    10    6    7 1
    11    6    8 1
    12    6   11 1
    13    8    9 1
    14    8   20 1
    15    8   21 1
    16    9   10 1
    17    9   22 1
    18    9   23 1
    19   10   24 1
    20   10   25 1
    21   11   16 1
    22   11   12 1
    23   11   34 1
    24   12   13 1
    25   12   26 1
    26   12   27 1
    27   13   14 1
    28   13   28 1
    29   13   29 1
    30   14   15 1
    31   14   16 1
    32   14   17 1
    33   16   30 1
    34   16   31 1
    35   17   32 1
    36   17   33 1
@<TRIPOS>MOLECULE
ZINC05885179
   38    39     0     0     0
SMALL
USER_CHARGES
N-(2-chlorophenyl)-2-methyl-5-methylsulfonylamino-benzenesulfonamide
@<TRIPOS>ATOM
      1 C1         -3.9286   -0.1886    3.7437 C.3       1 <0>        -0.1442
      2 C2         -2.5986    0.3551    3.2890 C.ar      1 <0>         0.0198
      3 C3         -2.3699    0.5836    1.9443 C.ar      1 <0>        -0.1156
      4 C4         -1.1544    1.0871    1.5249 C.ar      1 <0>        -0.0866
      5 C5         -0.1568    1.3538    2.4543 C.ar      1 <0>         0.1146
      6 C6         -0.3899    1.1232    3.8040 C.ar      1 <0>        -0.0256
      7 C7         -1.6100    0.6248    4.2172 C.ar      1 <0>        -0.6644
      8 S1         -1.9067    0.3318    5.9292 S.o2      1 <0>         2.6925
      9 O1         -0.7128    0.6845    6.6144 O.2       1 <0>        -0.9446
     10 O2         -3.1620    0.9252    6.2312 O.2       1 <0>        -0.9362
     11 N1         -2.0971   -1.3020    6.1205 N.pl3     1 <0>        -1.0513
     12 C8         -1.0613   -2.1721    5.7698 C.ar      1 <0>         0.1708
     13 C9          0.2604   -1.7580    5.8727 C.ar      1 <0>        -0.1690
     14 C10         1.2820   -2.6221    5.5304 C.ar      1 <0>        -0.0812
     15 C11         0.9904   -3.8949    5.0750 C.ar      1 <0>        -0.1241
     16 C12        -0.3243   -4.3094    4.9661 C.ar      1 <0>        -0.0838
     17 C13        -1.3515   -3.4519    5.3119 C.ar      1 <0>        -0.0601
     18 Cl1        -3.0019   -3.9722    5.1738 Cl        1 <0>        -0.0585
     19 N2          1.0756    1.8581    2.0330 N.pl3     1 <0>        -1.0572
     20 S2          1.8539    1.1715    0.7426 S.o2      1 <0>         2.6058
     21 O3          3.0840    1.8761    0.6442 O.2       1 <0>        -0.9462
     22 O4          0.9075    1.2148   -0.3166 O.2       1 <0>        -0.9486
     23 C14         2.1560   -0.5464    1.2407 C.3       1 <0>        -0.6687
     24 H1         -4.6185    0.6372    3.9174 H         1 <0>         0.1018
     25 H2         -4.3346   -0.8456    2.9745 H         1 <0>         0.0894
     26 H3         -3.7945   -0.7506    4.6679 H         1 <0>         0.0621
     27 H4         -3.1444    0.3722    1.2219 H         1 <0>         0.1443
     28 H5         -0.9780    1.2695    0.4751 H         1 <0>         0.1673
     29 H6          0.3822    1.3329    4.5294 H         1 <0>         0.1523
     30 H7         -2.9277   -1.6551    6.4760 H         1 <0>         0.4310
     31 H8          0.4892   -0.7626    6.2237 H         1 <0>         0.1686
     32 H9          2.3100   -2.3017    5.6139 H         1 <0>         0.1381
     33 H10         1.7913   -4.5666    4.8035 H         1 <0>         0.1367
     34 H11        -0.5486   -5.3041    4.6101 H         1 <0>         0.1400
     35 H12         1.4757    2.6106    2.4962 H         1 <0>         0.4303
     36 H13         2.6935   -0.5607    2.1888 H         1 <0>         0.1338
     37 H14         1.2037   -1.0644    1.3551 H         1 <0>         0.1300
     38 H15         2.7522   -1.0466    0.4774 H         1 <0>         0.1366
@<TRIPOS>BOND
     1    1    2 1
     2    1   24 1
     3    1   25 1
     4    1   26 1
     5    2    7 ar
     6    2    3 ar
     7    3    4 ar
     8    3   27 1
     9    4    5 ar
    10    4   28 1
    11    5    6 ar
    12    5   19 1
    13    6    7 ar
    14    6   29 1
    15    7    8 1
    16    8    9 2
    17    8   10 2
    18    8   11 1
    19   11   12 1
    20   11   30 1
    21   12   17 ar
    22   12   13 ar
    23   13   14 ar
    24   13   31 1
    25   14   15 ar
    26   14   32 1
    27   15   16 ar
    28   15   33 1
    29   16   17 ar
    30   16   34 1
    31   17   18 1
    32   19   20 1
    33   19   35 1
    34   20   21 2
    35   20   22 2
    36   20   23 1
    37   23   36 1
    38   23   37 1
    39   23   38 1
@<TRIPOS>MOLECULE
ZINC21531481
   39    41     0     0     0
SMALL
USER_CHARGES
N-(2-ethylphenyl)-5-(6-oxo-1H-pyridazin-3-yl)thiophene-2-sulfonamide
@<TRIPOS>ATOM
      1 C1         -3.6867   -3.0392    3.9148 C.3       1 <0>        -0.1499
      2 C2         -5.1128   -2.6296    4.2881 C.3       1 <0>        -0.0827
      3 C3         -5.3828   -1.2349    3.7854 C.ar      1 <0>        -0.0984
      4 C4         -5.2046   -0.1513    4.6232 C.ar      1 <0>        -0.0957
      5 C5         -5.4512    1.1288    4.1625 C.ar      1 <0>        -0.1305
      6 C6         -5.8774    1.3289    2.8621 C.ar      1 <0>        -0.0921
      7 C7         -6.0530    0.2506    2.0177 C.ar      1 <0>        -0.1723
      8 C8         -5.8107   -1.0374    2.4788 C.ar      1 <0>         0.1584
      9 N1         -5.9915   -2.1308    1.6287 N.pl3     1 <0>        -1.0625
     10 S1         -5.6278   -1.9969    0.0187 S.o2      1 <0>         2.7279
     11 O1         -6.3389   -0.8660   -0.4656 O.2       1 <0>        -0.9400
     12 O2         -5.7847   -3.2930   -0.5422 O.2       1 <0>        -0.9409
     13 C9         -3.9145   -1.6021   -0.0972 C.2       1 <0>        -0.7652
     14 C10        -2.8494   -2.4399   -0.1859 C.2       1 <0>         0.0006
     15 C11        -1.5823   -1.9074   -0.2744 C.2       1 <0>        -0.1571
     16 C12        -1.4379   -0.5455   -0.2582 C.2       1 <0>        -0.0642
     17 S2         -3.1322    0.0023   -0.1289 S.3       1 <0>         0.2268
     18 C13        -0.2019    0.2607   -0.3343 C.2       1 <0>         0.1213
     19 C14        -0.2786    1.6749   -0.3070 C.2       1 <0>        -0.0619
     20 C15         0.8824    2.3851   -0.3792 C.2       1 <0>        -0.1720
     21 C16         2.0939    1.6647   -0.4776 C.2       1 <0>         0.4807
     22 O3          3.1581    2.2587   -0.5448 O.2       1 <0>        -0.5211
     23 N2          2.0668    0.3191   -0.4964 N.am      1 <0>        -0.4474
     24 H1          3.0057   -0.2489   -0.5724 H         1 <0>         0.4777
     25 N3          0.9650   -0.3365   -0.4276 N.2       1 <0>        -0.1848
     26 H2         -3.4897   -4.0573    4.2818 H         1 <0>         0.0609
     27 H3         -2.9724   -2.3395    4.3733 H         1 <0>         0.0574
     28 H4         -3.5728   -3.0153    2.8210 H         1 <0>         0.0542
     29 H5         -5.8271   -3.3293    3.8296 H         1 <0>         0.0699
     30 H6         -5.2268   -2.6536    5.3819 H         1 <0>         0.0766
     31 H7         -4.8718   -0.3041    5.6393 H         1 <0>         0.1257
     32 H8         -5.3103    1.9743    4.8195 H         1 <0>         0.1249
     33 H9         -6.0688    2.3302    2.5053 H         1 <0>         0.1294
     34 H10        -6.3815    0.4079    1.0010 H         1 <0>         0.1584
     35 H11        -6.3755   -3.0808    2.0287 H         1 <0>         0.4543
     36 H12        -2.9945   -3.5101   -0.1916 H         1 <0>         0.1533
     37 H13        -0.7188   -2.5515   -0.3516 H         1 <0>         0.1537
     38 H14        -1.2321    2.1771   -0.2354 H         1 <0>         0.1544
     39 H15         0.8764    3.4649   -0.3625 H         1 <0>         0.1722
@<TRIPOS>BOND
     1    1    2 1
     2    1   26 1
     3    1   27 1
     4    1   28 1
     5    2    3 1
     6    2   29 1
     7    2   30 1
     8    3    8 ar
     9    3    4 ar
    10    4    5 ar
    11    4   31 1
    12    5    6 ar
    13    5   32 1
    14    6    7 ar
    15    6   33 1
    16    7    8 ar
    17    7   34 1
    18    8    9 1
    19    9   10 1
    20    9   35 1
    21   10   11 2
    22   10   12 2
    23   10   13 1
    24   13   17 1
    25   13   14 2
    26   14   15 1
    27   14   36 1
    28   15   16 2
    29   15   37 1
    30   16   17 1
    31   16   18 1
    32   18   25 2
    33   18   19 1
    34   19   20 2
    35   19   38 1
    36   20   21 1
    37   20   39 1
    38   21   22 2
    39   21   23 am
    40   23   24 1
    41   23   25 1
@<TRIPOS>MOLECULE
ZINC48686734
   50    51     0     0     0
SMALL
USER_CHARGES

@<TRIPOS>ATOM
      1 C1         -0.0735    1.5071    0.0264 C.3       1 <0>        -0.1501
      2 C2         -0.0459   -0.0226    0.0192 C.3       1 <0>        -0.0831
      3 H1          0.4600   -0.3727   -0.8806 H         1 <0>         0.0733
      4 C3         -1.4788   -0.5586    0.0400 C.3       1 <0>        -0.1199
      5 C4         -1.4512   -2.0884    0.0328 C.3       1 <0>        -0.1164
      6 C5         -0.7009   -2.5907    1.2679 C.3       1 <0>        -0.1323
      7 C6          0.7320   -2.0547    1.2471 C.3       1 <0>         0.1483
      8 H2          1.2379   -2.4047    0.3473 H         1 <0>         0.0936
      9 C7          0.7044   -0.5250    1.2543 C.3       1 <0>        -0.0939
     10 H3          1.7252   -0.1431    1.2395 H         1 <0>         0.0784
     11 C8         -0.0057   -0.0336    2.5173 C.3       1 <0>        -0.1587
     12 N1          1.4505   -2.5357    2.4298 N.am      1 <0>        -0.6931
     13 C9          2.0409   -3.7471    2.4132 C.2       1 <0>         0.5124
     14 O1          1.9773   -4.4396    1.4184 O.2       1 <0>        -0.5131
     15 C10         2.7732   -4.2374    3.6185 C.2       1 <0>         0.5064
     16 O2          2.8368   -3.5447    4.6135 O.2       1 <0>        -0.5024
     17 N2          3.3636   -5.4488    3.6018 N.am      1 <0>        -0.6284
     18 C11         4.1288   -5.8697    4.6961 C.ar      1 <0>         0.0817
     19 C12         3.7629   -5.5001    5.9831 C.ar      1 <0>        -0.0349
     20 C13         4.5185   -5.9157    7.0630 C.ar      1 <0>        -0.0887
     21 C14         5.6448   -6.7031    6.8630 C.ar      1 <0>         0.1721
     22 C15         6.0139   -7.0747    5.5792 C.ar      1 <0>        -0.2727
     23 C16         5.2553   -6.6650    4.4950 C.ar      1 <0>         0.1590
     24 O3          5.6128   -7.0332    3.2359 O.3       1 <0>        -0.3082
     25 C17         6.7788   -7.8489    3.1048 C.3       1 <0>         0.0250
     26 O4          6.3868   -7.1098    7.9274 O.3       1 <0>        -0.2983
     27 C18         7.5322   -7.9175    7.6491 C.3       1 <0>         0.0232
     28 Cl1         4.0594   -5.4524    8.6718 Cl        1 <0>        -0.0458
     29 H4          0.9473    1.8890    0.0116 H         1 <0>         0.0552
     30 H5         -0.6081    1.8650   -0.8535 H         1 <0>         0.0567
     31 H6         -0.5794    1.8572    0.9262 H         1 <0>         0.0595
     32 H7         -1.9847   -0.2086    0.9397 H         1 <0>         0.0678
     33 H8         -2.0134   -0.2008   -0.8400 H         1 <0>         0.0651
     34 H9         -2.4720   -2.4703    0.0476 H         1 <0>         0.0673
     35 H10        -0.9453   -2.4384   -0.8670 H         1 <0>         0.0651
     36 H11        -1.2067   -2.2407    2.1677 H         1 <0>         0.0705
     37 H12        -0.6812   -3.6805    1.2628 H         1 <0>         0.0681
     38 H13        -1.0265   -0.4155    2.5321 H         1 <0>         0.0666
     39 H14         0.5289   -0.3915    3.3973 H         1 <0>         0.0531
     40 H15        -0.0253    1.0562    2.5224 H         1 <0>         0.0654
     41 H16         1.5013   -1.9823    3.2248 H         1 <0>         0.4127
     42 H17         3.2584   -6.0291    2.8317 H         1 <0>         0.4276
     43 H18         2.8877   -4.8872    6.1405 H         1 <0>         0.1653
     44 H19         6.8900   -7.6870    5.4249 H         1 <0>         0.1501
     45 H20         6.9513   -8.0697    2.0515 H         1 <0>         0.1075
     46 H21         7.6405   -7.3188    3.5107 H         1 <0>         0.0592
     47 H22         6.6342   -8.7802    3.6524 H         1 <0>         0.0597
     48 H23         7.2185   -8.8314    7.1445 H         1 <0>         0.0583
     49 H24         8.2188   -7.3655    7.0072 H         1 <0>         0.0582
     50 H25         8.0331   -8.1719    8.5832 H         1 <0>         0.1071
@<TRIPOS>BOND
     1    1    2 1
     2    1   29 1
     3    1   30 1
     4    1   31 1
     5    2    3 1
     6    2    9 1
     7    2    4 1
     8    4    5 1
     9    4   32 1
    10    4   33 1
    11    5    6 1
    12    5   34 1
    13    5   35 1
    14    6    7 1
    15    6   36 1
    16    6   37 1
    17    7    8 1
    18    7    9 1
    19    7   12 1
    20    9   10 1
    21    9   11 1
    22   11   38 1
    23   11   39 1
    24   11   40 1
    25   12   13 am
    26   12   41 1
    27   13   14 2
    28   13   15 1
    29   15   16 2
    30   15   17 am
    31   17   18 1
    32   17   42 1
    33   18   23 ar
    34   18   19 ar
    35   19   20 ar
    36   19   43 1
    37   20   21 ar
    38   20   28 1
    39   21   22 ar
    40   21   26 1
    41   22   23 ar
    42   22   44 1
    43   23   24 1
    44   24   25 1
    45   25   45 1
    46   25   46 1
    47   25   47 1
    48   26   27 1
    49   27   48 1
    50   27   49 1
    51   27   50 1
@<TRIPOS>MOLECULE
ZINC60388927
   50    52     0     0     0
SMALL
USER_CHARGES

@<TRIPOS>ATOM
      1 C1         -0.0126    1.3748   -0.1792 C.ar      1 <0>        -0.1178
      2 C2          1.1745    2.0810   -0.1820 C.ar      1 <0>        -0.0653
      3 C3          2.3796    1.4110   -0.0183 C.ar      1 <0>         0.1291
      4 C4          2.3872    0.0321    0.1478 C.ar      1 <0>        -0.0462
      5 C5          1.1970   -0.6681    0.1498 C.ar      1 <0>        -0.6169
      6 C6         -0.0017    0.0022   -0.0136 C.ar      1 <0>        -0.0334
      7 S1          1.2055   -2.4175    0.3599 S.o2      1 <0>         2.6269
      8 O1          0.0026   -2.9022   -0.2210 O.2       1 <0>        -0.9826
      9 O2          2.4874   -2.8700   -0.0537 O.2       1 <0>        -0.9782
     10 N1          1.0999   -2.7160    1.9854 N.2       1 <0>        -0.9831
     11 C7          1.0865   -3.9340    2.4196 C.2       1 <0>         0.5348
     12 N2          1.1598   -5.0538    1.6345 N.pl3     1 <0>        -0.7566
     13 C8          1.6029   -6.1926    2.4550 C.3       1 <0>         0.0988
     14 C9          1.0622   -5.8834    3.8688 C.3       1 <0>        -0.1387
     15 C10         0.9939   -4.3415    3.8736 C.3       1 <0>        -0.0955
     16 N3          3.5839    2.1235   -0.0212 N.am      1 <0>        -0.6772
     17 C11         3.6280    3.3746    0.4780 C.2       1 <0>         0.5139
     18 O3          2.6493    3.8477    1.0159 O.2       1 <0>        -0.5122
     19 C12         4.8932    4.1858    0.3677 C.3       1 <0>        -0.1373
     20 C13         4.6766    5.5583    1.0082 C.3       1 <0>        -0.0714
     21 C14         4.4344    5.3881    2.5093 C.3       1 <0>        -0.1210
     22 C15         4.2178    6.7606    3.1498 C.3       1 <0>        -0.1176
     23 C16         5.4584    7.6282    2.9285 C.3       1 <0>        -0.1214
     24 C17         5.7006    7.7984    1.4274 C.3       1 <0>        -0.1192
     25 C18         5.9172    6.4259    0.7869 C.3       1 <0>        -0.1150
     26 H1         -0.9506    1.8959   -0.3019 H         1 <0>         0.1396
     27 H2          1.1654    3.1532   -0.3118 H         1 <0>         0.1443
     28 H3          3.3229   -0.4920    0.2751 H         1 <0>         0.1423
     29 H4         -0.9312   -0.5478   -0.0118 H         1 <0>         0.1420
     30 H5          1.1751   -7.1219    2.0789 H         1 <0>         0.0940
     31 H6          2.6912   -6.2515    2.4682 H         1 <0>         0.0833
     32 H7          0.0726   -6.3186    4.0079 H         1 <0>         0.0898
     33 H8          1.7531   -6.2392    4.6332 H         1 <0>         0.0993
     34 H9          1.8297   -3.9260    4.4365 H         1 <0>         0.1160
     35 H10         0.0475   -4.0086    4.2998 H         1 <0>         0.1179
     36 H11         4.3871    1.7169   -0.3824 H         1 <0>         0.4140
     37 H12         5.7026    3.6682    0.8826 H         1 <0>         0.0983
     38 H13         5.1533    4.3122   -0.6833 H         1 <0>         0.0994
     39 H14         3.8109    6.0392    0.5527 H         1 <0>         0.0794
     40 H15         3.5506    4.7699    2.6670 H         1 <0>         0.0797
     41 H16         5.3001    4.9071    2.9647 H         1 <0>         0.0554
     42 H17         3.3521    7.2415    2.6943 H         1 <0>         0.0615
     43 H18         4.0453    6.6393    4.2192 H         1 <0>         0.0600
     44 H19         5.3041    8.6060    3.3848 H         1 <0>         0.0601
     45 H20         6.3241    7.1473    3.3839 H         1 <0>         0.0603
     46 H21         4.8349    8.2793    0.9719 H         1 <0>         0.0619
     47 H22         6.5844    8.4165    1.2697 H         1 <0>         0.0620
     48 H23         6.7829    5.9450    1.2423 H         1 <0>         0.0633
     49 H24         6.0897    6.5472   -0.2826 H         1 <0>         0.0623
     50 H25         0.9528   -5.0905    0.6876 H         1 <0>         0.4167
@<TRIPOS>BOND
     1    1    6 ar
     2    1    2 ar
     3    1   26 1
     4    2    3 ar
     5    2   27 1
     6    3    4 ar
     7    3   16 1
     8    4    5 ar
     9    4   28 1
    10    5    6 ar
    11    5    7 1
    12    6   29 1
    13    7    8 2
    14    7    9 2
    15    7   10 1
    16   10   11 2
    17   11   15 1
    18   11   12 1
    19   12   13 1
    20   12   50 1
    21   13   14 1
    22   13   30 1
    23   13   31 1
    24   14   15 1
    25   14   32 1
    26   14   33 1
    27   15   34 1
    28   15   35 1
    29   16   17 am
    30   16   36 1
    31   17   18 2
    32   17   19 1
    33   19   20 1
    34   19   37 1
    35   19   38 1
    36   20   25 1
    37   20   21 1
    38   20   39 1
    39   21   22 1
    40   21   40 1
    41   21   41 1
    42   22   23 1
    43   22   42 1
    44   22   43 1
    45   23   24 1
    46   23   44 1
    47   23   45 1
    48   24   25 1
    49   24   46 1
    50   24   47 1
    51   25   48 1
    52   25   49 1
@<TRIPOS>MOLECULE
ZINC66403142
   41    43     0     0     0
SMALL
USER_CHARGES

@<TRIPOS>ATOM
      1 C1         -4.1324   -0.3407    3.8867 C.3       1 <0>        -0.0806
      2 C2         -3.4919   -1.5694    3.2944 C.2       1 <0>         0.0740
      3 C3         -4.2371   -2.5968    2.8200 C.2       1 <0>        -0.2385
      4 S1         -2.9560   -3.7125    2.2708 S.3       1 <0>         0.1193
      5 C4         -1.6281   -2.7698    2.6956 C.2       1 <0>         0.0071
      6 N1         -2.1793   -1.6901    3.2097 N.2       1 <0>        -0.4969
      7 S2          0.0837   -3.1357    2.4946 S.3       1 <0>         0.1397
      8 C5          0.0973   -4.7860    1.8773 C.ar      1 <0>        -0.1917
      9 C6          0.1709   -5.0155    0.5091 C.ar      1 <0>        -0.0312
     10 C7          0.1820   -6.3085    0.0259 C.ar      1 <0>        -0.1567
     11 C8          0.1197   -7.3798    0.9073 C.ar      1 <0>         0.2063
     12 C9          0.0457   -7.1508    2.2749 C.ar      1 <0>        -0.1292
     13 C10         0.0403   -5.8581    2.7591 C.ar      1 <0>        -0.0339
     14 N2          0.1310   -8.6925    0.4163 N.am      1 <0>        -0.6865
     15 C11        -0.5875   -9.6499    1.0357 C.2       1 <0>         0.7074
     16 O1         -1.1780   -9.3950    2.0676 O.2       1 <0>        -0.5640
     17 N3         -0.6515  -10.8898    0.5114 N.am      1 <0>        -0.7367
     18 C12        -1.4325  -11.9305    1.1847 C.3       1 <0>         0.2053
     19 C13        -1.3409  -13.2139    0.4003 C.2       1 <0>         0.0530
     20 C14        -0.4732  -14.2272    0.6269 C.2       1 <0>        -0.2437
     21 C15        -0.7203  -15.2256   -0.3211 C.2       1 <0>         0.0450
     22 N4         -1.7012  -14.8260   -1.0892 N.2       1 <0>        -0.2842
     23 N5         -2.1134  -13.5612   -0.6503 N.pl3     1 <0>        -0.3640
     24 C16        -3.1907  -12.7561   -1.2313 C.3       1 <0>         0.0959
     25 H1         -4.3061    0.3936    3.1001 H         1 <0>         0.0763
     26 H2         -5.0826   -0.6121    4.3467 H         1 <0>         0.0763
     27 H3         -3.4718    0.0853    4.6419 H         1 <0>         0.0762
     28 H4         -5.3106   -2.7098    2.7843 H         1 <0>         0.1967
     29 H5          0.2190   -4.1823   -0.1765 H         1 <0>         0.1406
     30 H6          0.2388   -6.4870   -1.0377 H         1 <0>         0.1359
     31 H7         -0.0031   -7.9842    2.9600 H         1 <0>         0.1513
     32 H8         -0.0128   -5.6801    3.8230 H         1 <0>         0.1381
     33 H9          0.6559   -8.9120   -0.3693 H         1 <0>         0.4115
     34 H10        -0.1805  -11.0932   -0.3118 H         1 <0>         0.4017
     35 H11        -1.0376  -12.0890    2.1882 H         1 <0>         0.0994
     36 H12        -2.4747  -11.6179    1.2495 H         1 <0>         0.0829
     37 H13         0.2778  -14.2592    1.4024 H         1 <0>         0.1521
     38 H14        -0.1922  -16.1639   -0.4049 H         1 <0>         0.1879
     39 H15        -2.7845  -12.1175   -2.0157 H         1 <0>         0.0763
     40 H16        -3.9485  -13.4149   -1.6553 H         1 <0>         0.0933
     41 H17        -3.6406  -12.1369   -0.4553 H         1 <0>         0.0882
@<TRIPOS>BOND
     1    1    2 1
     2    1   25 1
     3    1   26 1
     4    1   27 1
     5    2    6 1
     6    2    3 2
     7    3    4 1
     8    3   28 1
     9    4    5 1
    10    5    6 2
    11    5    7 1
    12    7    8 1
    13    8   13 ar
    14    8    9 ar
    15    9   10 ar
    16    9   29 1
    17   10   11 ar
    18   10   30 1
    19   11   12 ar
    20   11   14 1
    21   12   13 ar
    22   12   31 1
    23   13   32 1
    24   14   15 am
    25   14   33 1
    26   15   16 2
    27   15   17 am
    28   17   18 1
    29   17   34 1
    30   18   19 1
    31   18   35 1
    32   18   36 1
    33   19   23 1
    34   19   20 2
    35   20   21 1
    36   20   37 1
    37   21   22 2
    38   21   38 1
    39   22   23 1
    40   23   24 1
    41   24   39 1
    42   24   40 1
    43   24   41 1
@<TRIPOS>MOLECULE
ZINC11967764
   40    42     0     0     0
SMALL
USER_CHARGES
(3S)-3-(2,3-dihydro-1,4-benzodioxin-6-ylsulfonylmethyl)piperidine
@<TRIPOS>ATOM
      1 C1         -3.1508    4.3516   -2.6170 C.ar      1 <0>        -0.0174
      2 C2         -3.8286    4.7037   -3.7693 C.ar      1 <0>        -0.1316
      3 C3         -3.1245    4.9961   -4.9275 C.ar      1 <0>         0.1173
      4 C4         -1.7356    4.9373   -4.9256 C.ar      1 <0>         0.0336
      5 C5         -1.0617    4.5886   -3.7650 C.ar      1 <0>        -0.0186
      6 C6         -1.7700    4.2909   -2.6158 C.ar      1 <0>        -0.6673
      7 S1         -0.9108    3.8401   -1.1450 S.o2      1 <0>         2.4966
      8 O1         -1.7852    4.2080   -0.0871 O.2       1 <0>        -0.9206
      9 O2          0.3680    4.4466   -1.2719 O.2       1 <0>        -0.9343
     10 C7         -0.7573    2.0346   -1.2296 C.3       1 <0>        -0.6159
     11 C8         -0.0187    1.5270    0.0104 C.3       1 <0>        -0.0992
     12 H1         -0.5279    1.8791    0.9076 H         1 <0>         0.1127
     13 C9          0.0021   -0.0041    0.0020 C.3       1 <0>        -0.1264
     14 C10         0.7943   -0.5026    1.2138 C.3       1 <0>        -0.1498
     15 C11         2.2082    0.0811    1.1680 C.3       1 <0>        -0.0071
     16 C12         1.4188    2.0518   -0.0005 C.3       1 <0>        -0.0352
     17 O3         -1.0248    5.2252   -6.0500 O.3       1 <0>        -0.3021
     18 C13        -1.7442    5.2071   -7.2878 C.3       1 <0>         0.0183
     19 C14        -3.0565    5.9784   -7.0919 C.3       1 <0>         0.0154
     20 O4         -3.8058    5.3333   -6.0565 O.3       1 <0>        -0.2974
     21 H2         -3.7012    4.1240   -1.7161 H         1 <0>         0.1535
     22 H3         -4.9076    4.7507   -3.7674 H         1 <0>         0.1515
     23 H4          0.0174    4.5450   -3.7601 H         1 <0>         0.1539
     24 H5         -0.1981    1.7590   -2.1237 H         1 <0>         0.1496
     25 H6         -1.7503    1.5870   -1.2697 H         1 <0>         0.1592
     26 H7         -1.0188   -0.3825    0.0535 H         1 <0>         0.1009
     27 H8          0.4766   -0.3569   -0.9136 H         1 <0>         0.0889
     28 H9          0.2979   -0.1824    2.1299 H         1 <0>         0.0922
     29 H10         0.8490   -1.5910    1.1901 H         1 <0>         0.1174
     30 H11         2.7705   -0.2605    2.0371 H         1 <0>         0.1361
     31 H12         2.7088   -0.2506    0.2583 H         1 <0>         0.1321
     32 H13         1.9231    1.7108   -0.9046 H         1 <0>         0.1450
     33 H14         1.4077    3.1416    0.0199 H         1 <0>         0.1468
     34 H15        -1.1492    5.6856   -8.0658 H         1 <0>         0.1326
     35 H16        -1.9611    4.1774   -7.5720 H         1 <0>         0.0839
     36 H17        -2.8389    7.0063   -6.8020 H         1 <0>         0.0875
     37 H18        -3.6292    5.9709   -8.0193 H         1 <0>         0.1338
     38 N1          2.1390    1.5547    1.1873 N.4       1 <0>        -0.5125
     39 H19         3.0915    1.9381    1.1903 H         1 <0>         0.4422
     40 H20         1.6449    1.8591    2.0343 H         1 <0>         0.4344
@<TRIPOS>BOND
     1    1    6 ar
     2    1    2 ar
     3    1   21 1
     4    2    3 ar
     5    2   22 1
     6    3   20 1
     7    3    4 ar
     8    4    5 ar
     9    4   17 1
    10    5    6 ar
    11    5   23 1
    12    6    7 1
    13    7    8 2
    14    7    9 2
    15    7   10 1
    16   10   11 1
    17   10   24 1
    18   10   25 1
    19   11   12 1
    20   11   16 1
    21   11   13 1
    22   13   14 1
    23   13   26 1
    24   13   27 1
    25   14   15 1
    26   14   28 1
    27   14   29 1
    28   15   30 1
    29   15   31 1
    30   15   38 1
    31   16   32 1
    32   16   33 1
    33   16   38 1
    34   17   18 1
    35   18   19 1
    36   18   34 1
    37   18   35 1
    38   19   20 1
    39   19   36 1
    40   19   37 1
    41   38   39 1
    42   38   40 1
@<TRIPOS>MOLECULE
ZINC40672833
   45    46     0     0     0
SMALL
USER_CHARGES

@<TRIPOS>ATOM
      1 C1          0.0215    1.4891    0.0428 C.3       1 <0>        -0.1791
      2 C2          0.0163   -0.0403    0.0005 C.3       1 <0>         0.0926
      3 N1         -1.3663   -0.5245    0.0117 N.am      1 <0>        -0.5165
      4 C3         -2.0677   -0.6523   -1.1816 C.2       1 <0>         0.2853
      5 N2         -3.3048   -1.0610   -1.3629 N.2       1 <0>        -0.5120
      6 C4         -3.8314   -1.1271   -2.5716 C.2       1 <0>         0.0903
      7 C5         -3.0413   -0.7561   -3.6090 C.2       1 <0>        -0.2551
      8 S1         -1.5427   -0.3146   -2.7446 S.3       1 <0>         0.1268
      9 C6         -5.2475   -1.5946   -2.7888 C.3       1 <0>         0.1381
     10 N3         -5.2728   -3.0614   -2.8639 N.3       1 <0>        -0.6660
     11 C7         -6.6404   -3.5541   -3.0756 C.3       1 <0>         0.0715
     12 H1         -7.1845   -2.8559   -3.7117 H         1 <0>         0.0671
     13 C8         -7.3537   -3.6788   -1.7262 C.3       1 <0>        -0.1290
     14 C9         -8.7499   -4.2666   -1.9503 C.3       1 <0>        -0.1454
     15 C10        -8.6217   -5.6135   -2.6651 C.3       1 <0>        -0.0085
     16 N4         -7.9557   -5.4233   -3.9592 N.4       1 <0>        -0.3808
     17 C11        -6.5903   -4.9269   -3.7497 C.3       1 <0>        -0.0119
     18 C12        -7.9047   -6.7050   -4.6751 C.3       1 <0>        -0.0466
     19 C13        -1.9582   -0.8461    1.1790 C.2       1 <0>         0.5097
     20 O1         -3.0667   -1.3383    1.1815 O.2       1 <0>        -0.4756
     21 C14        -1.2428   -0.5940    2.4812 C.3       1 <0>        -0.1748
     22 H2          1.0502    1.8493    0.0344 H         1 <0>         0.0854
     23 H3         -0.5069    1.8784   -0.8275 H         1 <0>         0.0632
     24 H4         -0.4752    1.8291    0.9515 H         1 <0>         0.0679
     25 H5          0.5130   -0.3803   -0.9083 H         1 <0>         0.0904
     26 H6          0.5447   -0.4297    0.8707 H         1 <0>         0.1107
     27 H7         -3.2595   -0.7308   -4.6664 H         1 <0>         0.1955
     28 H8         -5.8710   -1.2624   -1.9588 H         1 <0>         0.0959
     29 H9         -5.6293   -1.1764   -3.7201 H         1 <0>         0.0562
     30 H10        -4.6518   -3.3974   -3.5846 H         1 <0>         0.3483
     31 H11        -6.7822   -4.3365   -1.0712 H         1 <0>         0.0908
     32 H12        -7.4422   -2.6937   -1.2682 H         1 <0>         0.0935
     33 H13        -9.2430   -4.4103   -0.9889 H         1 <0>         0.1156
     34 H14        -9.3382   -3.5838   -2.5633 H         1 <0>         0.0864
     35 H15        -8.0335   -6.2956   -2.0511 H         1 <0>         0.1300
     36 H16        -9.6140   -6.0349   -2.8261 H         1 <0>         0.1319
     37 H17        -6.0832   -4.8410   -4.7107 H         1 <0>         0.1285
     38 H18        -6.0452   -5.6240   -3.1133 H         1 <0>         0.1380
     39 H19        -8.9185   -7.0709   -4.8379 H         1 <0>         0.1257
     40 H20        -7.4103   -6.5649   -5.6364 H         1 <0>         0.1234
     41 H21        -7.3474   -7.4303   -4.0823 H         1 <0>         0.1227
     42 H22        -0.3130   -0.0592    2.2873 H         1 <0>         0.0872
     43 H23        -1.8772    0.0053    3.1342 H         1 <0>         0.1049
     44 H24        -1.0207   -1.5457    2.9639 H         1 <0>         0.1042
     45 H25        -8.4745   -4.7542   -4.5082 H         1 <0>         0.4236
@<TRIPOS>BOND
     1    1    2 1
     2    1   22 1
     3    1   23 1
     4    1   24 1
     5    2    3 1
     6    2   25 1
     7    2   26 1
     8    3    4 1
     9    3   19 am
    10    4    8 1
    11    4    5 2
    12    5    6 1
    13    6    7 2
    14    6    9 1
    15    7    8 1
    16    7   27 1
    17    9   10 1
    18    9   28 1
    19    9   29 1
    20   10   11 1
    21   10   30 1
    22   11   12 1
    23   11   17 1
    24   11   13 1
    25   13   14 1
    26   13   31 1
    27   13   32 1
    28   14   15 1
    29   14   33 1
    30   14   34 1
    31   15   16 1
    32   15   35 1
    33   15   36 1
    34   16   17 1
    35   16   18 1
    36   16   45 1
    37   17   37 1
    38   17   38 1
    39   18   39 1
    40   18   40 1
    41   18   41 1
    42   19   20 2
    43   19   21 1
    44   21   42 1
    45   21   43 1
    46   21   44 1
@<TRIPOS>MOLECULE
ZINC52146132
   50    52     0     0     0
SMALL
USER_CHARGES

@<TRIPOS>ATOM
      1 C1         -0.2407    1.1283    0.0643 C.3       1 <0>        -0.1272
      2 C2          1.2267    1.5235   -0.2480 C.3       1 <0>        -0.1349
      3 C3          2.0361    0.6763    0.7562 C.3       1 <0>         0.0765
      4 H1          2.2809    1.2748    1.6337 H         1 <0>         0.1255
      5 N1          1.1886   -0.4649    1.1479 N.3       1 <0>        -0.4889
      6 C4         -0.0924   -0.3732    0.4154 C.3       1 <0>         0.0333
      7 C5          1.8627   -1.7405    0.8718 C.3       1 <0>         0.0199
      8 C6          3.0018   -1.9454    1.8747 C.3       1 <0>        -0.1583
      9 C7          3.6482   -3.3109    1.6321 C.3       1 <0>        -0.0044
     10 N2          2.6455   -4.3687    1.8055 N.4       1 <0>        -0.5039
     11 C8          1.5862   -4.2206    0.8002 C.3       1 <0>        -0.0041
     12 C9          0.8605   -2.8900    1.0108 C.3       1 <0>        -0.1438
     13 C10         3.3014    0.1798    0.1053 C.2       1 <0>         0.4517
     14 O1          3.2451   -0.4390   -0.9309 O.2       1 <0>        -0.4991
     15 O2          4.4910    0.4252    0.6767 O.3       1 <0>        -0.3438
     16 C11         5.6488   -0.0749    0.0049 C.3       1 <0>         0.0685
     17 C12         6.9013    0.2998    0.7998 C.3       1 <0>        -0.0877
     18 C13         7.0717    1.8221    0.8001 C.3       1 <0>        -0.1526
     19 C14         8.3684    2.1825    1.5298 C.3       1 <0>         0.0584
     20 O3          9.4688    1.5301    0.8930 O.3       1 <0>        -0.3786
     21 C15         9.3873    0.1034    0.9044 C.3       1 <0>         0.0612
     22 C16         8.1315   -0.3405    0.1496 C.3       1 <0>        -0.1508
     23 H2         -0.6244    1.6921    0.9146 H         1 <0>         0.0878
     24 H3         -0.8762    1.2637   -0.8108 H         1 <0>         0.0892
     25 H4          1.4871    1.2595   -1.2729 H         1 <0>         0.0836
     26 H5          1.3854    2.5872   -0.0707 H         1 <0>         0.0948
     27 H6         -0.9167   -0.6976    1.0504 H         1 <0>         0.0970
     28 H7         -0.0535   -0.9734   -0.4936 H         1 <0>         0.0583
     29 H8          2.2652   -1.7283   -0.1412 H         1 <0>         0.1020
     30 H9          3.7475   -1.1612    1.7437 H         1 <0>         0.1151
     31 H10         2.6051   -1.9055    2.8891 H         1 <0>         0.1043
     32 H11         4.0448   -3.3496    0.6175 H         1 <0>         0.1275
     33 H12         4.4597   -3.4599    2.3444 H         1 <0>         0.1379
     34 H13         3.0865   -5.2698    1.6976 H         1 <0>         0.4329
     35 H14         2.0267   -4.2399   -0.1966 H         1 <0>         0.1301
     36 H15         0.8755   -5.0411    0.8984 H         1 <0>         0.1387
     37 H16         0.4193   -2.8697    2.0073 H         1 <0>         0.0992
     38 H17         0.0756   -2.7811    0.2623 H         1 <0>         0.1146
     39 H18         5.5813   -1.1597   -0.0767 H         1 <0>         0.0650
     40 H19         5.7073    0.3616   -0.9922 H         1 <0>         0.0758
     41 H20         6.8031   -0.0576    1.8249 H         1 <0>         0.0838
     42 H21         7.1193    2.1835   -0.2272 H         1 <0>         0.0744
     43 H22         6.2262    2.2832    1.3106 H         1 <0>         0.0821
     44 H23         8.5166    3.2618    1.4959 H         1 <0>         0.0996
     45 H24         8.3039    1.8567    2.5679 H         1 <0>         0.0529
     46 H25        10.2695   -0.3150    0.4199 H         1 <0>         0.1001
     47 H26         9.3361   -0.2496    1.9344 H         1 <0>         0.0526
     48 H27         8.0440   -1.4261    0.1948 H         1 <0>         0.0754
     49 H28         8.2005   -0.0228   -0.8908 H         1 <0>         0.0786
     50 H29         2.2435   -4.3016    2.7286 H         1 <0>         0.4298
@<TRIPOS>BOND
     1    1    6 1
     2    1    2 1
     3    1   23 1
     4    1   24 1
     5    2    3 1
     6    2   25 1
     7    2   26 1
     8    3    4 1
     9    3    5 1
    10    3   13 1
    11    5    6 1
    12    5    7 1
    13    6   27 1
    14    6   28 1
    15    7   12 1
    16    7    8 1
    17    7   29 1
    18    8    9 1
    19    8   30 1
    20    8   31 1
    21    9   10 1
    22    9   32 1
    23    9   33 1
    24   10   11 1
    25   10   34 1
    26   10   50 1
    27   11   12 1
    28   11   35 1
    29   11   36 1
    30   12   37 1
    31   12   38 1
    32   13   14 2
    33   13   15 1
    34   15   16 1
    35   16   17 1
    36   16   39 1
    37   16   40 1
    38   17   22 1
    39   17   18 1
    40   17   41 1
    41   18   19 1
    42   18   42 1
    43   18   43 1
    44   19   20 1
    45   19   44 1
    46   19   45 1
    47   20   21 1
    48   21   22 1
    49   21   46 1
    50   21   47 1
    51   22   48 1
    52   22   49 1
@<TRIPOS>MOLECULE
ZINC62387729
   50    52     0     0     0
SMALL
USER_CHARGES

@<TRIPOS>ATOM
      1 C1         -0.1082    1.5001    0.0199 C.3       1 <0>        -0.1279
      2 C2         -0.0409   -0.0054    0.0066 C.2       1 <0>         0.1812
      3 C3         -0.1412   -0.6680   -1.1675 C.2       1 <0>        -0.2988
      4 C4         -0.0773   -2.0794   -1.1731 C.2       1 <0>         0.3626
      5 O1         -0.1650   -2.7038   -2.2209 O.2       1 <0>        -0.5235
      6 C5          0.0910   -2.7570    0.0611 C.2       1 <0>        -0.0175
      7 C6          0.1850   -2.0351    1.2031 C.2       1 <0>         0.1044
      8 N1          0.1250   -0.6781    1.1706 N.pl3     1 <0>        -0.4225
      9 C7          0.2359    0.0739    2.4229 C.3       1 <0>         0.0370
     10 C8          1.1195    1.3230    2.4210 C.3       1 <0>        -0.1918
     11 C9          1.5872    0.0562    3.1403 C.3       1 <0>        -0.1255
     12 C10         0.3636   -2.7431    2.5214 C.3       1 <0>         0.0983
     13 N2          1.6751   -2.4006    3.0875 N.3       1 <0>        -0.5223
     14 C11         2.7628   -2.9320    2.2553 C.3       1 <0>         0.0111
     15 C12         1.7913   -2.8765    4.4724 C.3       1 <0>         0.0696
     16 C13         0.7083   -2.2186    5.3324 C.3       1 <0>        -0.1513
     17 C14         0.8844   -2.6569    6.7879 C.3       1 <0>        -0.0046
     18 N3          2.2093   -2.2475    7.2691 N.4       1 <0>        -0.3847
     19 C15         3.2531   -2.9302    6.4954 C.3       1 <0>        -0.0046
     20 C16         3.1682   -2.5024    5.0286 C.3       1 <0>        -0.1460
     21 C17         2.3438   -2.6010    8.6886 C.3       1 <0>        -0.0476
     22 O2          0.1567   -4.1159    0.0976 O.3       1 <0>        -0.4716
     23 H1          0.8985    1.9096   -0.0630 H         1 <0>         0.0914
     24 H2         -0.7108    1.8443   -0.8207 H         1 <0>         0.0921
     25 H3         -0.5611    1.8353    0.9530 H         1 <0>         0.0837
     26 H4         -0.2693   -0.1241   -2.0917 H         1 <0>         0.1528
     27 H5         -0.6617    0.0931    3.0409 H         1 <0>         0.1267
     28 H6          1.6183    1.5852    1.4879 H         1 <0>         0.1104
     29 H7          0.8032    2.1642    3.0377 H         1 <0>         0.1110
     30 H8          1.5785    0.0640    4.2302 H         1 <0>         0.0932
     31 H9          2.3937   -0.5150    2.6804 H         1 <0>         0.1233
     32 H10        -0.4219   -2.4321    3.2102 H         1 <0>         0.0924
     33 H11         0.3050   -3.8204    2.3661 H         1 <0>         0.0801
     34 H12         2.6934   -2.5089    1.2531 H         1 <0>         0.0766
     35 H13         3.7225   -2.6641    2.6971 H         1 <0>         0.0760
     36 H14         2.6794   -4.0173    2.1980 H         1 <0>         0.0417
     37 H15         1.6701   -3.9594    4.4971 H         1 <0>         0.0637
     38 H16         0.7988   -1.1345    5.2653 H         1 <0>         0.1012
     39 H17        -0.2753   -2.5252    4.9765 H         1 <0>         0.1127
     40 H18         0.1148   -2.1905    7.4030 H         1 <0>         0.1339
     41 H19         0.7934   -3.7411    6.8539 H         1 <0>         0.1287
     42 H20         4.2323   -2.6655    6.8944 H         1 <0>         0.1342
     43 H21         3.1117   -4.0086    6.5676 H         1 <0>         0.1285
     44 H22         3.9429   -3.0118    4.4555 H         1 <0>         0.1152
     45 H23         3.3098   -1.4241    4.9552 H         1 <0>         0.0997
     46 H24         2.2307   -3.6786    8.8070 H         1 <0>         0.1217
     47 H25         3.3274   -2.2973    9.0470 H         1 <0>         0.1247
     48 H26         1.5731   -2.0893    9.2651 H         1 <0>         0.1244
     49 H27         0.0792   -4.5369   -0.7695 H         1 <0>         0.4112
     50 H28         2.3112   -1.2494    7.1621 H         1 <0>         0.4248
@<TRIPOS>BOND
     1    1    2 1
     2    1   23 1
     3    1   24 1
     4    1   25 1
     5    2    8 1
     6    2    3 2
     7    3    4 1
     8    3   26 1
     9    4    5 2
    10    4    6 1
    11    6    7 2
    12    6   22 1
    13    7    8 1
    14    7   12 1
    15    8    9 1
    16    9   11 1
    17    9   10 1
    18    9   27 1
    19   10   11 1
    20   10   28 1
    21   10   29 1
    22   11   30 1
    23   11   31 1
    24   12   13 1
    25   12   32 1
    26   12   33 1
    27   13   14 1
    28   13   15 1
    29   14   34 1
    30   14   35 1
    31   14   36 1
    32   15   20 1
    33   15   16 1
    34   15   37 1
    35   16   17 1
    36   16   38 1
    37   16   39 1
    38   17   18 1
    39   17   40 1
    40   17   41 1
    41   18   19 1
    42   18   21 1
    43   18   50 1
    44   19   20 1
    45   19   42 1
    46   19   43 1
    47   20   44 1
    48   20   45 1
    49   21   46 1
    50   21   47 1
    51   21   48 1
    52   22   49 1
@<TRIPOS>MOLECULE
ZINC63198240
   48    50     0     0     0
SMALL
USER_CHARGES

@<TRIPOS>ATOM
      1 C1         -0.0189    1.5389    0.0105 C.3       1 <0>        -0.1442
      2 C2          1.4877    1.9090   -0.0019 C.3       1 <0>        -0.1391
      3 C3          2.0771    0.7912   -0.8979 C.3       1 <0>         0.0290
      4 H1          1.9393    1.0367   -1.9509 H         1 <0>         0.1439
      5 N1          1.3058   -0.4202   -0.5467 N.4       1 <0>        -0.5144
      6 C4          0.0021   -0.0041    0.0020 C.3       1 <0>        -0.0100
      7 C5          3.5618    0.5883   -0.5891 C.3       1 <0>        -0.1046
      8 C6          4.3199    1.8917   -0.8515 C.3       1 <0>        -0.1262
      9 C7          5.7998    1.6949   -0.5084 C.3       1 <0>         0.1085
     10 N2          6.3095    0.5388   -1.2584 N.am      1 <0>        -0.6202
     11 C8          5.5999   -0.7430   -1.1487 C.3       1 <0>         0.1053
     12 C9          4.1222   -0.5189   -1.4847 C.3       1 <0>        -0.1473
     13 C10         7.4068    0.6522   -2.0327 C.2       1 <0>         0.5155
     14 O1          7.9835    1.7160   -2.1153 O.2       1 <0>        -0.5203
     15 C11         7.9173   -0.5428   -2.7959 C.3       1 <0>        -0.1277
     16 C12         9.1641   -0.1467   -3.5893 C.3       1 <0>        -0.0841
     17 H2          9.9007    0.2975   -2.9198 H         1 <0>         0.1076
     18 C13         8.7833    0.8624   -4.6854 C.3       1 <0>        -0.1247
     19 C14         9.9541    1.0227   -5.6848 C.3       1 <0>        -0.5773
     20 S1         10.7963   -0.6093   -5.5855 S.o2      1 <0>         2.3694
     21 O2         12.1140   -0.4200   -5.0882 O.2       1 <0>        -0.9307
     22 O3         10.6042   -1.3040   -6.8101 O.2       1 <0>        -0.9355
     23 C15         9.7699   -1.4031   -4.2776 C.3       1 <0>        -0.5804
     24 H3         -0.5001    1.9129    0.9142 H         1 <0>         0.1142
     25 H4         -0.5172    1.9225   -0.8798 H         1 <0>         0.1004
     26 H5          1.6450    2.8909   -0.4483 H         1 <0>         0.1186
     27 H6          1.9085    1.8666    1.0027 H         1 <0>         0.1010
     28 H7          1.1629   -0.9829   -1.3720 H         1 <0>         0.4308
     29 H8         -0.1103   -0.3820    1.0182 H         1 <0>         0.1334
     30 H9         -0.8031   -0.3824   -0.6278 H         1 <0>         0.1344
     31 H10         3.6797    0.3042    0.4566 H         1 <0>         0.0990
     32 H11         4.2231    2.1635   -1.9027 H         1 <0>         0.0801
     33 H12         3.9048    2.6854   -0.2304 H         1 <0>         0.0900
     34 H13         6.3611    2.5870   -0.7863 H         1 <0>         0.1050
     35 H14         5.9059    1.5122    0.5609 H         1 <0>         0.0735
     36 H15         6.0293   -1.4595   -1.8491 H         1 <0>         0.0979
     37 H16         5.6896   -1.1245   -0.1316 H         1 <0>         0.0776
     38 H17         3.5664   -1.4410   -1.3141 H         1 <0>         0.0738
     39 H18         4.0273   -0.2244   -2.5299 H         1 <0>         0.0854
     40 H19         8.1697   -1.3398   -2.0965 H         1 <0>         0.1062
     41 H20         7.1458   -0.8923   -3.4820 H         1 <0>         0.1018
     42 H21         7.9010    0.5045   -5.2160 H         1 <0>         0.0800
     43 H22         8.5630    1.8271   -4.2284 H         1 <0>         0.1099
     44 H23         9.5801    1.2038   -6.6925 H         1 <0>         0.1419
     45 H24        10.6239    1.8230   -5.3703 H         1 <0>         0.1411
     46 H25        10.3878   -1.9732   -3.5838 H         1 <0>         0.1440
     47 H26         8.9905   -2.0283   -4.7132 H         1 <0>         0.1401
     48 H27         1.8099   -0.9552    0.1445 H         1 <0>         0.4273
@<TRIPOS>BOND
     1    1    6 1
     2    1    2 1
     3    1   24 1
     4    1   25 1
     5    2    3 1
     6    2   26 1
     7    2   27 1
     8    3    4 1
     9    3    5 1
    10    3    7 1
    11    5    6 1
    12    5   28 1
    13    5   48 1
    14    6   29 1
    15    6   30 1
    16    7   12 1
    17    7    8 1
    18    7   31 1
    19    8    9 1
    20    8   32 1
    21    8   33 1
    22    9   10 1
    23    9   34 1
    24    9   35 1
    25   10   11 1
    26   10   13 am
    27   11   12 1
    28   11   36 1
    29   11   37 1
    30   12   38 1
    31   12   39 1
    32   13   14 2
    33   13   15 1
    34   15   16 1
    35   15   40 1
    36   15   41 1
    37   16   17 1
    38   16   23 1
    39   16   18 1
    40   18   19 1
    41   18   42 1
    42   18   43 1
    43   19   20 1
    44   19   44 1
    45   19   45 1
    46   20   21 2
    47   20   22 2
    48   20   23 1
    49   23   46 1
    50   23   47 1
@<TRIPOS>MOLECULE
ZINC04395161
   48    50     0     0     0
SMALL
USER_CHARGES
9-(2-pyrrolidin-1-ylethylsulfanyl)-11-(trifluoromethyl)-8-azabicyclo[5.4.0]undeca-7,9,11-triene-10-carbonitrile
@<TRIPOS>ATOM
      1 C1          0.0021   -0.0041    0.0020 C.3       1 <0>        -0.1294
      2 C2         -0.0187    1.5255    0.0104 C.3       1 <0>        -0.1280
      3 C3          1.4241    2.0284   -0.0006 C.3       1 <0>        -0.1042
      4 C4          1.9466    2.2367    1.3991 C.ar      1 <0>        -0.0629
      5 C5          1.5254    1.5060    2.4847 C.ar      1 <0>         0.1878
      6 N1          2.0702    1.6990    3.6811 N.ar      1 <0>        -0.4698
      7 C6          3.0145    2.5966    3.8959 C.ar      1 <0>         0.1465
      8 C7          3.4779    3.3994    2.8381 C.ar      1 <0>         0.0007
      9 C8          2.9288    3.2076    1.5684 C.ar      1 <0>        -0.0837
     10 C9          3.3924    4.0393    0.4003 C.3       1 <0>         0.5081
     11 F1          4.7300    4.4031    0.5886 F         1 <0>        -0.1638
     12 F2          3.2729    3.2953   -0.7784 F         1 <0>        -0.1561
     13 F3          2.6045    5.1915    0.3064 F         1 <0>        -0.1599
     14 C10         4.4888    4.3896    3.0577 C.1       1 <0>         0.2195
     15 N2          5.2908    5.1751    3.2319 N.1       1 <0>        -0.3383
     16 S1          3.6947    2.7891    5.5099 S.3       1 <0>         0.0193
     17 C11         2.7412    1.5373    6.4041 C.3       1 <0>        -0.1594
     18 C12         3.1720    1.5205    7.8722 C.3       1 <0>         0.0140
     19 C13         2.4785   -0.8130    7.9168 C.3       1 <0>        -0.0129
     20 C14         2.0929   -1.8142    9.0346 C.3       1 <0>        -0.1466
     21 C15         2.7510   -1.1995   10.2912 C.3       1 <0>        -0.1469
     22 C16         2.9456    0.2907    9.9552 C.3       1 <0>        -0.0101
     23 C17         0.4395    0.4651    2.3885 C.3       1 <0>        -0.0784
     24 C18         0.7205   -0.5154    1.2470 C.3       1 <0>        -0.1177
     25 H1         -1.0208   -0.3806   -0.0068 H         1 <0>         0.0721
     26 H2          0.5246   -0.3548   -0.8880 H         1 <0>         0.0727
     27 H3         -0.5405    1.8898   -0.8745 H         1 <0>         0.0821
     28 H4         -0.5234    1.8802    0.9091 H         1 <0>         0.0745
     29 H5          2.0522    1.2979   -0.5105 H         1 <0>         0.1032
     30 H6          1.4679    2.9737   -0.5417 H         1 <0>         0.0967
     31 H7          1.6793    1.7747    6.3398 H         1 <0>         0.1209
     32 H8          2.9220    0.5579    5.9612 H         1 <0>         0.1210
     33 H9          4.2338    1.2830    7.9365 H         1 <0>         0.1377
     34 H10         2.9912    2.4999    8.3151 H         1 <0>         0.1418
     35 H11         1.7670   -0.8639    7.0925 H         1 <0>         0.1390
     36 H12         3.4921   -1.0023    7.5636 H         1 <0>         0.1347
     37 H13         2.5054   -2.8015    8.8271 H         1 <0>         0.1165
     38 H14         1.0104   -1.8639    9.1513 H         1 <0>         0.0989
     39 H15         3.7138   -1.6727   10.4840 H         1 <0>         0.1039
     40 H16         2.0946   -1.3100   11.1544 H         1 <0>         0.1058
     41 H17         4.0067    0.5394    9.9709 H         1 <0>         0.1323
     42 H18         2.4063    0.9071   10.6745 H         1 <0>         0.1355
     43 H19        -0.5154    0.9592    2.2092 H         1 <0>         0.1058
     44 H20         0.3872   -0.0848    3.3282 H         1 <0>         0.0878
     45 H21         0.3449   -1.5044    1.5095 H         1 <0>         0.0812
     46 H22         1.7930   -0.5662    1.0591 H         1 <0>         0.0678
     47 N3          2.3954    0.4809    8.6124 N.4       1 <0>        -0.3917
     48 H23         1.4145    0.7769    8.6783 H         1 <0>         0.4321
@<TRIPOS>BOND
     1    1   24 1
     2    1    2 1
     3    1   25 1
     4    1   26 1
     5    2    3 1
     6    2   27 1
     7    2   28 1
     8    3    4 1
     9    3   29 1
    10    3   30 1
    11    4    9 ar
    12    4    5 ar
    13    5    6 ar
    14    5   23 1
    15    6    7 ar
    16    7    8 ar
    17    7   16 1
    18    8    9 ar
    19    8   14 1
    20    9   10 1
    21   10   11 1
    22   10   12 1
    23   10   13 1
    24   14   15 3
    25   16   17 1
    26   17   18 1
    27   17   31 1
    28   17   32 1
    29   18   33 1
    30   18   34 1
    31   18   47 1
    32   19   20 1
    33   19   35 1
    34   19   36 1
    35   19   47 1
    36   20   21 1
    37   20   37 1
    38   20   38 1
    39   21   22 1
    40   21   39 1
    41   21   40 1
    42   22   41 1
    43   22   42 1
    44   22   47 1
    45   23   24 1
    46   23   43 1
    47   23   44 1
    48   24   45 1
    49   24   46 1
    50   47   48 1
@<TRIPOS>MOLECULE
ZINC12076002
   43    45     0     0     0
SMALL
USER_CHARGES
(1S)-N-methyl-N-[[5-methyl-2-(5-methyl-2-thienyl)oxazol-4-yl]methyl]-1-(2-thienyl)ethanamine
@<TRIPOS>ATOM
      1 C1         -5.7033   -8.4102   -2.8401 C.3       1 <0>        -0.0830
      2 C2         -5.6858   -6.9512   -2.4634 C.2       1 <0>        -0.1077
      3 C3         -6.7205   -6.1558   -2.0857 C.2       1 <0>        -0.1813
      4 C4         -6.4791   -4.8362   -1.7822 C.2       1 <0>        -0.0753
      5 C5         -5.1818   -4.3667   -1.8742 C.2       1 <0>        -0.1607
      6 S1         -4.3014   -5.8258   -2.4067 S.3       1 <0>         0.1562
      7 C6         -4.6637   -3.0166   -1.6090 C.2       1 <0>         0.3216
      8 N1         -3.4093   -2.6384   -1.7242 N.2       1 <0>        -0.4592
      9 C7         -3.3214   -1.3402   -1.3951 C.2       1 <0>        -0.0793
     10 C8         -4.5555   -0.9095   -1.0791 C.2       1 <0>         0.0123
     11 O1         -5.3936   -1.9580   -1.2131 O.3       1 <0>        -0.1753
     12 C9         -4.9325    0.4864   -0.6544 C.3       1 <0>        -0.0964
     13 C10        -2.0634   -0.5104   -1.3874 C.3       1 <0>         0.0912
     14 C11        -2.2808    0.0521    0.9576 C.3       1 <0>        -0.0588
     15 C12        -0.0935    0.0116   -0.0799 C.3       1 <0>         0.1381
     16 H1         -0.1682    1.0663   -0.3448 H         1 <0>         0.1563
     17 C13         0.5435   -0.1226    1.3047 C.3       1 <0>        -0.1815
     18 C14         0.7595   -0.7025   -1.0966 C.2       1 <0>        -0.2611
     19 C15         1.5933   -0.1804   -2.0291 C.2       1 <0>        -0.0796
     20 C16         2.2841   -1.0370   -2.8654 C.2       1 <0>        -0.1745
     21 C17         2.1075   -2.3739   -2.7283 C.2       1 <0>        -0.1162
     22 S2          0.9400   -2.4558   -1.3802 S.3       1 <0>         0.0681
     23 H2         -5.8697   -8.5065   -3.9130 H         1 <0>         0.0910
     24 H3         -4.7478   -8.8646   -2.5783 H         1 <0>         0.0818
     25 H4         -6.5053   -8.9149   -2.3013 H         1 <0>         0.0918
     26 H5         -7.7219   -6.5556   -2.0240 H         1 <0>         0.1482
     27 H6         -7.2836   -4.1822   -1.4797 H         1 <0>         0.1439
     28 H7         -5.1859    1.0779   -1.5342 H         1 <0>         0.1053
     29 H8         -5.7922    0.4430    0.0142 H         1 <0>         0.0991
     30 H9         -4.0920    0.9479   -0.1360 H         1 <0>         0.0939
     31 H10        -2.3107    0.5266   -1.6146 H         1 <0>         0.1481
     32 H11        -1.3718   -0.8920   -2.1386 H         1 <0>         0.1465
     33 H12        -2.3987    1.1099    0.7224 H         1 <0>         0.1324
     34 H13        -3.2591   -0.4284    0.9704 H         1 <0>         0.1215
     35 H14        -1.8118   -0.0525    1.9359 H         1 <0>         0.1319
     36 H15         1.5395    0.3200    1.2909 H         1 <0>         0.1113
     37 H16        -0.0735    0.3939    2.0400 H         1 <0>         0.0907
     38 H17         0.6182   -1.1773    1.5696 H         1 <0>         0.0827
     39 H18         1.7162    0.8890   -2.1171 H         1 <0>         0.1444
     40 H19         2.9544   -0.6470   -3.6170 H         1 <0>         0.1504
     41 H20         2.5589   -3.1805   -3.2870 H         1 <0>         0.1994
     42 N2         -1.4330   -0.6126   -0.0544 N.4       1 <0>        -0.3979
     43 H21        -1.3342   -1.6043    0.1927 H         1 <0>         0.4294
@<TRIPOS>BOND
     1    1    2 1
     2    1   23 1
     3    1   24 1
     4    1   25 1
     5    2    6 1
     6    2    3 2
     7    3    4 1
     8    3   26 1
     9    4    5 2
    10    4   27 1
    11    5    6 1
    12    5    7 1
    13    7   11 1
    14    7    8 2
    15    8    9 1
    16    9   10 2
    17    9   13 1
    18   10   11 1
    19   10   12 1
    20   12   28 1
    21   12   29 1
    22   12   30 1
    23   13   31 1
    24   13   32 1
    25   13   42 1
    26   14   33 1
    27   14   34 1
    28   14   35 1
    29   14   42 1
    30   15   16 1
    31   15   17 1
    32   15   18 1
    33   15   42 1
    34   17   36 1
    35   17   37 1
    36   17   38 1
    37   18   22 1
    38   18   19 2
    39   19   20 1
    40   19   39 1
    41   20   21 2
    42   20   40 1
    43   21   22 1
    44   21   41 1
    45   42   43 1
@<TRIPOS>MOLECULE
ZINC36909741
   43    45     0     0     0
SMALL
USER_CHARGES

@<TRIPOS>ATOM
      1 C1         -1.7147   -3.2387   -3.3733 C.3       1 <0>        -0.1859
      2 C2         -1.0574   -2.9008   -2.0337 C.3       1 <0>        -0.0249
      3 N1         -1.8723   -1.9042   -1.3260 N.4       1 <0>        -0.3848
      4 C3         -3.1868   -2.4883   -0.9844 C.3       1 <0>        -0.0117
      5 C4         -3.5417   -1.8833    0.3967 C.3       1 <0>        -0.1399
      6 C5         -2.1528   -1.8412    1.0866 C.3       1 <0>        -0.1446
      7 C6         -1.1964   -1.5068   -0.0773 C.3       1 <0>         0.0015
      8 H1         -0.9899   -0.4366   -0.0918 H         1 <0>         0.1466
      9 C7          0.1087   -2.2897    0.0800 C.3       1 <0>         0.0952
     10 N2          0.8099   -1.8334    1.2827 N.pl3     1 <0>        -0.4919
     11 C8          1.6252   -0.7230    1.3833 C.ar      1 <0>         0.0490
     12 C9          2.0359    0.2569    0.4899 C.ar      1 <0>        -0.1069
     13 C10         2.8791    1.2613    0.9134 C.ar      1 <0>        -0.0771
     14 C11         3.3217    1.3005    2.2294 C.ar      1 <0>        -0.0390
     15 C12         2.9246    0.3369    3.1292 C.ar      1 <0>        -0.0447
     16 C13         2.0697   -0.6884    2.7155 C.ar      1 <0>         0.0629
     17 N3          1.5152   -1.7557    3.3457 N.2       1 <0>        -0.4576
     18 C14         0.7741   -2.4214    2.5087 C.2       1 <0>         0.2860
     19 C15        -0.0066   -3.6652    2.8472 C.3       1 <0>        -0.0581
     20 C16         0.9145   -4.8839    2.7639 C.3       1 <0>        -0.0385
     21 Cl1        -0.0195   -6.3720    3.1689 Cl        1 <0>        -0.1564
     22 Cl2         4.3841    2.5736    2.7434 Cl        1 <0>        -0.0437
     23 H2         -1.0653   -3.9076   -3.9382 H         1 <0>         0.1079
     24 H3         -2.6726   -3.7273   -3.1950 H         1 <0>         0.0829
     25 H4         -1.8744   -2.3222   -3.9411 H         1 <0>         0.0814
     26 H5         -0.9811   -3.8039   -1.4283 H         1 <0>         0.1321
     27 H6         -0.0606   -2.4962   -2.2098 H         1 <0>         0.1324
     28 H7         -3.9328   -2.2037   -1.7264 H         1 <0>         0.1400
     29 H8         -3.1135   -3.5737   -0.9158 H         1 <0>         0.1353
     30 H9         -3.9547   -0.8803    0.2891 H         1 <0>         0.1019
     31 H10        -4.2289   -2.5305    0.9416 H         1 <0>         0.1224
     32 H11        -2.1233   -1.0601    1.8463 H         1 <0>         0.1159
     33 H12        -1.9082   -2.8111    1.5199 H         1 <0>         0.1029
     34 H13        -0.1140   -3.3528    0.1706 H         1 <0>         0.1181
     35 H14         0.7395   -2.1237   -0.7933 H         1 <0>         0.1160
     36 H15         1.6956    0.2320   -0.5348 H         1 <0>         0.1291
     37 H16         3.1981    2.0229    0.2173 H         1 <0>         0.1480
     38 H17         3.2722    0.3735    4.1511 H         1 <0>         0.1488
     39 H18        -0.4059   -3.5798    3.8578 H         1 <0>         0.1233
     40 H19        -0.8284   -3.7819    2.1406 H         1 <0>         0.0923
     41 H20         1.3137   -4.9693    1.7533 H         1 <0>         0.0929
     42 H21         1.7362   -4.7672    3.4705 H         1 <0>         0.1107
     43 H22        -2.0049   -1.0943   -1.9129 H         1 <0>         0.4302
@<TRIPOS>BOND
     1    1    2 1
     2    1   23 1
     3    1   24 1
     4    1   25 1
     5    2    3 1
     6    2   26 1
     7    2   27 1
     8    3    7 1
     9    3    4 1
    10    3   43 1
    11    4    5 1
    12    4   28 1
    13    4   29 1
    14    5    6 1
    15    5   30 1
    16    5   31 1
    17    6    7 1
    18    6   32 1
    19    6   33 1
    20    7    8 1
    21    7    9 1
    22    9   10 1
    23    9   34 1
    24    9   35 1
    25   10   18 1
    26   10   11 1
    27   11   16 ar
    28   11   12 ar
    29   12   13 ar
    30   12   36 1
    31   13   14 ar
    32   13   37 1
    33   14   15 ar
    34   14   22 1
    35   15   16 ar
    36   15   38 1
    37   16   17 1
    38   17   18 2
    39   18   19 1
    40   19   20 1
    41   19   39 1
    42   19   40 1
    43   20   21 1
    44   20   41 1
    45   20   42 1
@<TRIPOS>MOLECULE
ZINC43555594
   47    48     0     0     0
SMALL
USER_CHARGES

@<TRIPOS>ATOM
      1 C1         -1.4685   -0.4387   -0.0352 C.3       1 <0>        -0.1536
      2 C2          0.0370   -0.2038    0.1025 C.3       1 <0>        -0.1159
      3 C3          0.7370   -0.6066   -1.1970 C.3       1 <0>         0.1806
      4 H1          0.3066   -0.0497   -2.0293 H         1 <0>         0.0865
      5 C4          0.5504   -2.0836   -1.4311 C.2       1 <0>         0.0378
      6 N1         -0.2382   -2.6778   -2.2915 N.2       1 <0>        -0.4898
      7 C5         -0.2917   -3.9919   -2.3790 C.2       1 <0>         0.0445
      8 C6          0.5067   -4.6976   -1.5377 C.2       1 <0>        -0.2016
      9 S1          1.3103   -3.3695   -0.6553 S.3       1 <0>         0.1541
     10 C7         -1.1981   -4.6796   -3.3673 C.3       1 <0>         0.0360
     11 Cl1        -0.3160   -4.9274   -4.9202 Cl        1 <0>        -0.1623
     12 N2          2.1709   -0.3043   -1.0949 N.3       1 <0>        -0.5356
     13 C8          2.3920    1.1316   -0.8730 C.3       1 <0>         0.0260
     14 C9          3.8908    1.3952   -0.7131 C.3       1 <0>        -0.0099
     15 N3          4.5974    0.9547   -1.9232 N.4       1 <0>        -0.3805
     16 C10         4.3875   -0.4859   -2.1178 C.3       1 <0>        -0.0084
     17 C11         2.8927   -0.7651   -2.2894 C.3       1 <0>         0.0221
     18 C12         6.0340    1.2245   -1.7766 C.3       1 <0>         0.0550
     19 C13         6.5747    0.4633   -0.5645 C.3       1 <0>        -0.1772
     20 C14         6.7703    0.7658   -3.0369 C.3       1 <0>        -0.1778
     21 C15         6.2532    2.7253   -1.5756 C.3       1 <0>        -0.1769
     22 H2         -1.8387    0.0840   -0.9171 H         1 <0>         0.0607
     23 H3         -1.6617   -1.5066   -0.1380 H         1 <0>         0.0556
     24 H4         -1.9778   -0.0611    0.8515 H         1 <0>         0.0680
     25 H5          0.2232    0.8512    0.3035 H         1 <0>         0.0803
     26 H6          0.4248   -0.8044    0.9253 H         1 <0>         0.0810
     27 H7          0.6255   -5.7660   -1.4336 H         1 <0>         0.2039
     28 H8         -1.5065   -5.6452   -2.9666 H         1 <0>         0.1149
     29 H9         -2.0784   -4.0616   -3.5441 H         1 <0>         0.1116
     30 H10         2.0128    1.6941   -1.7262 H         1 <0>         0.0660
     31 H11         1.8692    1.4447    0.0307 H         1 <0>         0.1315
     32 H12         4.0582    2.4617   -0.5626 H         1 <0>         0.1399
     33 H13         4.2669    0.8433    0.1483 H         1 <0>         0.1419
     34 H14         4.9229   -0.8140   -3.0087 H         1 <0>         0.1382
     35 H15         4.7610   -1.0281   -1.2492 H         1 <0>         0.1420
     36 H16         2.7353   -1.8359   -2.4190 H         1 <0>         0.1183
     37 H17         2.5218   -0.2339   -3.1660 H         1 <0>         0.0659
     38 H18         6.4186   -0.6059   -0.7077 H         1 <0>         0.0824
     39 H19         7.6407    0.6635   -0.4557 H         1 <0>         0.1044
     40 H20         6.0502    0.7901    0.3334 H         1 <0>         0.0830
     41 H21         6.3850    1.3081   -3.9004 H         1 <0>         0.0809
     42 H22         7.8362    0.9660   -2.9281 H         1 <0>         0.1063
     43 H23         6.6141   -0.3034   -3.1800 H         1 <0>         0.0820
     44 H24         5.7286    3.0521   -0.6778 H         1 <0>         0.0825
     45 H25         7.3191    2.9255   -1.4669 H         1 <0>         0.1061
     46 H26         5.8679    3.2676   -2.4391 H         1 <0>         0.0809
     47 H27         4.2411    1.4574   -2.7222 H         1 <0>         0.4186
@<TRIPOS>BOND
     1    1    2 1
     2    1   22 1
     3    1   23 1
     4    1   24 1
     5    2    3 1
     6    2   25 1
     7    2   26 1
     8    3    4 1
     9    3    5 1
    10    3   12 1
    11    5    9 1
    12    5    6 2
    13    6    7 1
    14    7    8 2
    15    7   10 1
    16    8    9 1
    17    8   27 1
    18   10   11 1
    19   10   28 1
    20   10   29 1
    21   12   17 1
    22   12   13 1
    23   13   14 1
    24   13   30 1
    25   13   31 1
    26   14   15 1
    27   14   32 1
    28   14   33 1
    29   15   16 1
    30   15   18 1
    31   15   47 1
    32   16   17 1
    33   16   34 1
    34   16   35 1
    35   17   36 1
    36   17   37 1
    37   18   19 1
    38   18   20 1
    39   18   21 1
    40   19   38 1
    41   19   39 1
    42   19   40 1
    43   20   41 1
    44   20   42 1
    45   20   43 1
    46   21   44 1
    47   21   45 1
    48   21   46 1
@<TRIPOS>MOLECULE
ZINC36198551
   49    50     0     0     0
SMALL
USER_CHARGES

@<TRIPOS>ATOM
      1 C1          0.3364    1.6028   -0.2979 C.3       1 <0>        -0.1507
      2 C2          0.1646    0.0933   -0.1171 C.3       1 <0>        -0.1067
      3 H1          0.5780   -0.4262   -0.9816 H         1 <0>         0.0946
      4 C3         -1.3243   -0.2397    0.0157 C.3       1 <0>        -0.1312
      5 C4         -1.4805   -1.7410    0.2743 C.3       1 <0>        -0.1103
      6 H2         -1.1010   -2.2992   -0.5816 H         1 <0>         0.0946
      7 C5         -0.6870   -2.1227    1.5258 C.3       1 <0>        -0.0064
      8 N1          0.7318   -1.8041    1.3260 N.4       1 <0>        -0.3749
      9 C6          0.8980   -0.3566    1.1483 C.3       1 <0>        -0.0180
     10 C7          1.5005   -2.2433    2.4982 C.3       1 <0>        -0.0571
     11 C8          2.9704   -2.0293    2.2440 C.2       1 <0>         0.4002
     12 O1          3.3412   -1.5573    1.1900 O.2       1 <0>        -0.4381
     13 C9          3.9540   -2.3923    3.2725 C.ar      1 <0>        -0.2225
     14 C10         3.5288   -2.9428    4.4880 C.ar      1 <0>        -0.0229
     15 C11         4.4540   -3.2818    5.4484 C.ar      1 <0>        -0.2143
     16 C12         5.8095   -3.0783    5.2145 C.ar      1 <0>         0.2030
     17 C13         6.2379   -2.5312    4.0088 C.ar      1 <0>        -0.0900
     18 C14         5.3203   -2.1944    3.0387 C.ar      1 <0>         0.0041
     19 Cl1         7.9318   -2.2796    3.7243 Cl        1 <0>        -0.0274
     20 O2          6.7176   -3.4139    6.1652 O.3       1 <0>        -0.2848
     21 C15         6.2227   -4.0799    7.3286 C.3       1 <0>         0.0728
     22 C16         7.3448   -4.9077    7.9585 C.3       1 <0>        -0.1534
     23 C17         5.7263   -3.0425    8.3377 C.3       1 <0>        -0.1844
     24 C18        -2.9593   -2.0720    0.4851 C.3       1 <0>        -0.1507
     25 H3          1.3964    1.8393   -0.3908 H         1 <0>         0.0693
     26 H4         -0.1876    1.9229   -1.1985 H         1 <0>         0.0779
     27 H5         -0.0772    2.1217    0.5668 H         1 <0>         0.0664
     28 H6         -1.7500    0.3199    0.8486 H         1 <0>         0.0830
     29 H7         -1.8411    0.0271   -0.9062 H         1 <0>         0.0953
     30 H8         -1.0674   -1.5642    2.3810 H         1 <0>         0.1312
     31 H9         -0.7962   -3.1909    1.7129 H         1 <0>         0.1323
     32 H10         1.9583   -0.1209    1.0563 H         1 <0>         0.1427
     33 H11         0.4845    0.1643    2.0119 H         1 <0>         0.1268
     34 H12         1.1948   -1.6657    3.3705 H         1 <0>         0.1645
     35 H13         1.3135   -3.3018    2.6796 H         1 <0>         0.1660
     36 H14         2.4763   -3.1008    4.6713 H         1 <0>         0.1404
     37 H15         4.1267   -3.7064    6.3859 H         1 <0>         0.1538
     38 H16         5.6536   -1.7739    2.1014 H         1 <0>         0.1557
     39 H17         5.3996   -4.7372    7.0486 H         1 <0>         0.0801
     40 H18         8.1679   -4.2503    8.2386 H         1 <0>         0.0734
     41 H19         6.9673   -5.4156    8.8460 H         1 <0>         0.0855
     42 H20         7.6985   -5.6467    7.2396 H         1 <0>         0.0695
     43 H21         4.9269   -2.4527    7.8890 H         1 <0>         0.0618
     44 H22         5.3488   -3.5504    9.2251 H         1 <0>         0.0818
     45 H23         6.5494   -2.3851    8.6178 H         1 <0>         0.0748
     46 H24        -3.5239   -1.7964   -0.4056 H         1 <0>         0.0784
     47 H25        -3.0698   -3.1406    0.6691 H         1 <0>         0.0687
     48 H26        -3.3377   -1.5147    1.3421 H         1 <0>         0.0676
     49 H27         1.0708   -2.2832    0.5053 H         1 <0>         0.4278
@<TRIPOS>BOND
     1    1    2 1
     2    1   25 1
     3    1   26 1
     4    1   27 1
     5    2    3 1
     6    2    9 1
     7    2    4 1
     8    4    5 1
     9    4   28 1
    10    4   29 1
    11    5    6 1
    12    5    7 1
    13    5   24 1
    14    7    8 1
    15    7   30 1
    16    7   31 1
    17    8    9 1
    18    8   10 1
    19    8   49 1
    20    9   32 1
    21    9   33 1
    22   10   11 1
    23   10   34 1
    24   10   35 1
    25   11   12 2
    26   11   13 1
    27   13   18 ar
    28   13   14 ar
    29   14   15 ar
    30   14   36 1
    31   15   16 ar
    32   15   37 1
    33   16   17 ar
    34   16   20 1
    35   17   18 ar
    36   17   19 1
    37   18   38 1
    38   20   21 1
    39   21   22 1
    40   21   23 1
    41   21   39 1
    42   22   40 1
    43   22   41 1
    44   22   42 1
    45   23   43 1
    46   23   44 1
    47   23   45 1
    48   24   46 1
    49   24   47 1
    50   24   48 1
@<TRIPOS>MOLECULE
ZINC04499438
   34    35     0     0     0
SMALL
USER_CHARGES
(2S,8aS)-2-allyl-7-methylene-2,3,5,6,8,8a-hexahydro-1H-quinoline
@<TRIPOS>ATOM
      1 C1         -0.9408    4.3103    1.0676 C.2       1 <0>        -0.1554
      2 C2         -1.5541    3.4976    0.2433 C.2       1 <0>        -0.2063
      3 C3         -0.8711    3.0537   -1.0246 C.3       1 <0>        -0.1127
      4 C4         -0.8444    1.5250   -1.0811 C.3       1 <0>         0.0398
      5 H1         -1.8581    1.1357   -0.9863 H         1 <0>         0.1450
      6 C5         -0.2290    1.0456   -2.4144 C.3       1 <0>        -0.1131
      7 C6          1.1992    1.5163   -2.4693 C.2       1 <0>        -0.1366
      8 C7          1.8908    1.7406   -1.3862 C.2       1 <0>        -0.1384
      9 C8          3.3183    2.2337   -1.5370 C.3       1 <0>        -0.0770
     10 C9          4.2465    1.2877   -0.7666 C.3       1 <0>        -0.0884
     11 C10         3.6937    1.1023    0.6285 C.2       1 <0>        -0.1459
     12 C11         4.4318    1.3597    1.6797 C.2       1 <0>        -0.1497
     13 C12         2.2749    0.6061    0.7731 C.3       1 <0>        -0.0957
     14 C13         1.3420    1.5457   -0.0025 C.3       1 <0>         0.0760
     15 H2          1.3304    2.5116    0.5025 H         1 <0>         0.1390
     16 H3          0.0542    4.6622    0.8386 H         1 <0>         0.1021
     17 H4         -1.4303    4.6285    1.9763 H         1 <0>         0.1131
     18 H5         -2.5491    3.1457    0.4724 H         1 <0>         0.1242
     19 H6          0.1497    3.4357   -1.0403 H         1 <0>         0.0931
     20 H7         -1.4168    3.4397   -1.8855 H         1 <0>         0.1182
     21 H8         -0.7882    1.4707   -3.2478 H         1 <0>         0.1226
     22 H9         -0.2594   -0.0427   -2.4680 H         1 <0>         0.1062
     23 H10         1.6644    1.6723   -3.4314 H         1 <0>         0.1396
     24 H11         3.5942    2.2387   -2.5915 H         1 <0>         0.0899
     25 H12         3.4024    3.2412   -1.1294 H         1 <0>         0.0838
     26 H13         4.2903    0.3241   -1.2741 H         1 <0>         0.0798
     27 H14         5.2461    1.7190   -0.7130 H         1 <0>         0.0854
     28 H15         5.4463    1.7083    1.5550 H         1 <0>         0.1128
     29 H16         4.0257    1.2234    2.6711 H         1 <0>         0.1053
     30 H17         2.0018    0.6088    1.8283 H         1 <0>         0.0945
     31 H18         2.1904   -0.4046    0.3737 H         1 <0>         0.0953
     32 N1         -0.0196    0.9885    0.0244 N.4       1 <0>        -0.5124
     33 H19         0.0355   -0.0328   -0.0651 H         1 <0>         0.4307
     34 H20        -0.4619    1.2303    0.9190 H         1 <0>         0.4355
@<TRIPOS>BOND
     1    1    2 2
     2    1   16 1
     3    1   17 1
     4    2    3 1
     5    2   18 1
     6    3    4 1
     7    3   19 1
     8    3   20 1
     9    4    5 1
    10    4    6 1
    11    4   32 1
    12    6    7 1
    13    6   21 1
    14    6   22 1
    15    7    8 2
    16    7   23 1
    17    8   14 1
    18    8    9 1
    19    9   10 1
    20    9   24 1
    21    9   25 1
    22   10   11 1
    23   10   26 1
    24   10   27 1
    25   11   12 2
    26   11   13 1
    27   12   28 1
    28   12   29 1
    29   13   14 1
    30   13   30 1
    31   13   31 1
    32   14   15 1
    33   14   32 1
    34   32   33 1
    35   32   34 1
@<TRIPOS>MOLECULE
ZINC20417370
   28    29     0     0     0
SMALL
USER_CHARGES
7-azaspiro[4.5]decane
@<TRIPOS>ATOM
      1 C1         -0.1741    2.2366   -3.5048 C.3       1 <0>        -0.1359
      2 C2          0.0476    3.4771   -2.6038 C.3       1 <0>        -0.1257
      3 C3         -0.6823    3.1261   -1.2899 C.3       1 <0>        -0.1278
      4 C4         -0.7541    1.5931   -1.2276 C.3       1 <0>        -0.0759
      5 C5         -0.0717    1.0607   -2.5008 C.3       1 <0>        -0.1204
      6 C6         -0.0127    1.0858    0.0080 C.3       1 <0>        -0.1266
      7 C7         -0.7323    1.5811    1.2664 C.3       1 <0>        -0.1504
      8 C8         -2.1888    1.1083    1.2316 C.3       1 <0>        -0.0018
      9 N1         -2.8514    1.6384    0.0331 N.4       1 <0>        -0.5359
     10 C9         -2.2114    1.1391   -1.1915 C.3       1 <0>         0.0054
     11 H1          0.6021    2.1283   -4.2766 H         1 <0>         0.0774
     12 H2         -1.1665    2.2284   -3.9792 H         1 <0>         0.0684
     13 H3          1.1259    3.6297   -2.4489 H         1 <0>         0.0759
     14 H4         -0.3822    4.3651   -3.0902 H         1 <0>         0.0750
     15 H5         -0.1158    3.5283   -0.4371 H         1 <0>         0.0831
     16 H6         -1.6901    3.5669   -1.3012 H         1 <0>         0.0625
     17 H7         -0.5906    0.1819   -2.9113 H         1 <0>         0.0762
     18 H8          0.9869    0.8151   -2.3305 H         1 <0>         0.0851
     19 H9          0.0027   -0.0141    0.0005 H         1 <0>         0.0816
     20 H10         1.0191    1.4670   -0.0012 H         1 <0>         0.0936
     21 H11        -0.2331    1.1745    2.1583 H         1 <0>         0.1108
     22 H12        -0.7013    2.6802    1.2979 H         1 <0>         0.0886
     23 H13        -2.2169    0.0089    1.2083 H         1 <0>         0.1263
     24 H14        -2.7131    1.4695    2.1286 H         1 <0>         0.1313
     25 H15        -3.9066    1.3276    0.0297 H         1 <0>         0.4539
     26 H16        -2.7412    1.5368   -2.0697 H         1 <0>         0.1318
     27 H17        -2.2535    0.0400   -1.2045 H         1 <0>         0.1281
     28 H18        -2.7928    2.7368    0.0372 H         1 <0>         0.4455
@<TRIPOS>BOND
     1    1    5 1
     2    1    2 1
     3    1   11 1
     4    1   12 1
     5    2    3 1
     6    2   13 1
     7    2   14 1
     8    3    4 1
     9    3   15 1
    10    3   16 1
    11    4   10 1
    12    4    5 1
    13    4    6 1
    14    5   17 1
    15    5   18 1
    16    6    7 1
    17    6   19 1
    18    6   20 1
    19    7    8 1
    20    7   21 1
    21    7   22 1
    22    8    9 1
    23    8   23 1
    24    8   24 1
    25    9   10 1
    26    9   25 1
    27    9   28 1
    28   10   26 1
    29   10   27 1
@<TRIPOS>MOLECULE
ZINC40118348
   21    22     0     0     0
SMALL
USER_CHARGES

@<TRIPOS>ATOM
      1 C1         -0.0184    1.5028    0.0103 C.3       1 <0>        -0.1336
      2 C2          0.0021   -0.0041    0.0020 C.2       1 <0>         0.0993
      3 C3          0.0087   -0.8113   -1.0833 C.ar      1 <0>        -0.1824
      4 C4         -0.0018   -0.5385   -2.5254 C.ar      1 <0>         0.0009
      5 C5          0.0083   -1.5785   -3.3899 C.ar      1 <0>        -0.1591
      6 C6          0.0282   -2.9073   -2.9441 C.ar      1 <0>         0.0688
      7 C7          0.0389   -3.2372   -1.6352 C.ar      1 <0>        -0.2182
      8 C8          0.0302   -2.2230   -0.6382 C.ar      1 <0>         0.3531
      9 N1          0.0366   -2.2861    0.6712 N.pl3     1 <0>        -0.6223
     10 C9          0.0259   -0.9197    1.2055 C.3       1 <0>         0.2829
     11 H1          0.9230   -0.7386    1.7976 H         1 <0>         0.1615
     12 O1         -1.1417   -0.7149    2.0034 O.3       1 <0>        -0.5120
     13 H2          1.0042    1.8801    0.0026 H         1 <0>         0.1247
     14 H3         -0.5455    1.8639   -0.8728 H         1 <0>         0.1105
     15 H4         -0.5286    1.8543    0.9071 H         1 <0>         0.1113
     16 H5         -0.0178    0.4777   -2.8909 H         1 <0>         0.1644
     17 H6          0.0006   -1.3801   -4.4514 H         1 <0>         0.1605
     18 H7          0.0348   -3.6996   -3.6779 H         1 <0>         0.1633
     19 H8          0.0538   -4.2770   -1.3435 H         1 <0>         0.1624
     20 H9         -1.1831   -1.2748    2.7908 H         1 <0>         0.4135
     21 H10         0.0501   -3.1001    1.1987 H         1 <0>         0.4505
@<TRIPOS>BOND
     1    1    2 1
     2    1   13 1
     3    1   14 1
     4    1   15 1
     5    2   10 1
     6    2    3 2
     7    3    8 ar
     8    3    4 ar
     9    4    5 ar
    10    4   16 1
    11    5    6 ar
    12    5   17 1
    13    6    7 ar
    14    6   18 1
    15    7    8 ar
    16    7   19 1
    17    8    9 2
    18    9   10 1
    19    9   21 1
    20   10   11 1
    21   10   12 1
    22   12   20 1
@<TRIPOS>MOLECULE
ZINC52209493
   33    33     0     0     0
SMALL
USER_CHARGES

@<TRIPOS>ATOM
      1 C1         -0.0187    1.5258    0.0104 C.3       1 <0>        -0.1549
      2 C2          0.0021   -0.0041    0.0020 C.3       1 <0>        -0.0608
      3 C3          0.7421   -0.5109    1.2415 C.3       1 <0>        -0.1550
      4 C4         -1.4333   -0.5336    0.0129 C.3       1 <0>        -0.1487
      5 C5          0.7182   -0.4975   -1.2568 C.3       1 <0>        -0.1399
      6 C6          2.1536    0.0321   -1.2676 C.3       1 <0>        -0.0166
      7 N1          2.8412   -0.4417   -2.4763 N.4       1 <0>        -0.5028
      8 C7          4.2193    0.0668   -2.4867 C.3       1 <0>        -0.0088
      9 C8          4.3585    1.4561   -3.1313 C.3       1 <0>        -0.1486
     10 C9          5.6586    0.9419   -3.7718 C.3       1 <0>        -0.1359
     11 C10         5.0659   -0.4720   -3.6519 C.3       1 <0>        -0.1499
     12 H1          1.0039    1.9031    0.0027 H         1 <0>         0.0544
     13 H2         -0.5459    1.8868   -0.8726 H         1 <0>         0.0620
     14 H3         -0.5289    1.8773    0.9072 H         1 <0>         0.0693
     15 H4          0.2319   -0.1594    2.1383 H         1 <0>         0.0694
     16 H5          0.7568   -1.6008    1.2356 H         1 <0>         0.0621
     17 H6          1.7647   -0.1336    1.2338 H         1 <0>         0.0542
     18 H7         -1.9605   -0.1726   -0.8702 H         1 <0>         0.0606
     19 H8         -1.4185   -1.6235    0.0069 H         1 <0>         0.0606
     20 H9         -1.9435   -0.1821    0.9097 H         1 <0>         0.0676
     21 H10         0.7330   -1.5874   -1.2628 H         1 <0>         0.0879
     22 H11         0.1910   -0.1364   -2.1398 H         1 <0>         0.0876
     23 H12         2.1388    1.1220   -1.2617 H         1 <0>         0.1330
     24 H13         2.6808   -0.3290   -0.3846 H         1 <0>         0.1327
     25 H14         2.8549   -1.4505   -2.4818 H         1 <0>         0.4269
     26 H15         4.7087   -0.0168   -1.5163 H         1 <0>         0.1596
     27 H16         3.5751    1.6822   -3.8546 H         1 <0>         0.1038
     28 H17         4.5146    2.2584   -2.4101 H         1 <0>         0.1006
     29 H18         5.7980    1.2712   -4.8015 H         1 <0>         0.0962
     30 H19         6.5421    1.0989   -3.1529 H         1 <0>         0.1016
     31 H20         5.7931   -1.2262   -3.3511 H         1 <0>         0.1020
     32 H21         4.4760   -0.7729   -4.5177 H         1 <0>         0.1044
     33 H22         2.3532   -0.1074   -3.2937 H         1 <0>         0.4255
@<TRIPOS>BOND
     1    1    2 1
     2    1   12 1
     3    1   13 1
     4    1   14 1
     5    2    3 1
     6    2    4 1
     7    2    5 1
     8    3   15 1
     9    3   16 1
    10    3   17 1
    11    4   18 1
    12    4   19 1
    13    4   20 1
    14    5    6 1
    15    5   21 1
    16    5   22 1
    17    6    7 1
    18    6   23 1
    19    6   24 1
    20    7    8 1
    21    7   25 1
    22    7   33 1
    23    8   11 1
    24    8    9 1
    25    8   26 1
    26    9   10 1
    27    9   27 1
    28    9   28 1
    29   10   11 1
    30   10   29 1
    31   10   30 1
    32   11   31 1
    33   11   32 1
@<TRIPOS>MOLECULE
ZINC54591997
   29    30     0     0     0
SMALL
USER_CHARGES

@<TRIPOS>ATOM
      1 C1         -0.0187    1.5258    0.0104 C.3       1 <0>        -0.1903
      2 C2          0.0021   -0.0041    0.0020 C.3       1 <0>        -0.0104
      3 N1         -1.3761   -0.5125    0.0124 N.4       1 <0>        -0.5071
      4 C3         -1.3562   -1.9814    0.0044 C.3       1 <0>         0.0226
      5 C4         -2.7915   -2.5110    0.0152 C.3       1 <0>        -0.1919
      6 H1         -3.5243   -1.8725    0.5087 H         1 <0>         0.1315
      7 C5         -3.2580   -3.3099   -1.2018 C.3       1 <0>        -0.1482
      8 C6         -2.9857   -4.0311    0.1275 C.3       1 <0>        -0.1023
      9 C7         -4.1688   -4.5747    0.9384 C.3       1 <0>        -0.0996
     10 C8         -4.1267   -6.1260    0.9872 C.3       1 <0>        -0.0638
     11 S1         -2.3103   -6.3738    1.2069 S.3       1 <0>        -0.2743
     12 C9         -1.7279   -4.9255    0.2333 C.3       1 <0>        -0.0508
     13 H2          1.0039    1.9031    0.0027 H         1 <0>         0.1081
     14 H3         -0.5459    1.8868   -0.8726 H         1 <0>         0.0812
     15 H4         -0.5289    1.8773    0.9072 H         1 <0>         0.0812
     16 H5          0.5123   -0.3556   -0.8948 H         1 <0>         0.1313
     17 H6          0.5293   -0.3651    0.8851 H         1 <0>         0.1316
     18 H7         -1.8484   -0.1871    0.8426 H         1 <0>         0.4289
     19 H8         -0.8460   -2.3329   -0.8924 H         1 <0>         0.1341
     20 H9         -0.8290   -2.3425    0.8874 H         1 <0>         0.1355
     21 H10        -4.2976   -3.1973   -1.5092 H         1 <0>         0.1160
     22 H11        -2.5423   -3.4584   -2.0104 H         1 <0>         0.1119
     23 H12        -4.1203   -4.1812    1.9537 H         1 <0>         0.0885
     24 H13        -5.1012   -4.2543    0.4737 H         1 <0>         0.0876
     25 H14        -4.6867   -6.5125    1.8387 H         1 <0>         0.1187
     26 H15        -4.4775   -6.5630    0.0523 H         1 <0>         0.0990
     27 H16        -1.3946   -5.2376   -0.7565 H         1 <0>         0.1012
     28 H17        -0.9296   -4.4041    0.7614 H         1 <0>         0.1004
     29 H18        -1.8641   -0.1783   -0.8050 H         1 <0>         0.4297
@<TRIPOS>BOND
     1    1    2 1
     2    1   13 1
     3    1   14 1
     4    1   15 1
     5    2    3 1
     6    2   16 1
     7    2   17 1
     8    3    4 1
     9    3   18 1
    10    3   29 1
    11    4    5 1
    12    4   19 1
    13    4   20 1
    14    5    6 1
    15    5    8 1
    16    5    7 1
    17    7    8 1
    18    7   21 1
    19    7   22 1
    20    8   12 1
    21    8    9 1
    22    9   10 1
    23    9   23 1
    24    9   24 1
    25   10   11 1
    26   10   25 1
    27   10   26 1
    28   11   12 1
    29   12   27 1
    30   12   28 1
@<TRIPOS>MOLECULE
ZINC04999758
   38    39     0     0     0
SMALL
USER_CHARGES
1-[[5-(3-chloro-4-methyl-phenyl)-2-furyl]methylamino]propan-2-ol
@<TRIPOS>ATOM
      1 C1         -7.5817   -2.8412    4.3050 C.3       1 <0>        -0.1312
      2 C2         -6.4745   -2.4240    3.3717 C.ar      1 <0>        -0.0464
      3 C3         -5.2686   -1.9830    3.8871 C.ar      1 <0>        -0.1068
      4 C4         -4.2510   -1.5996    3.0385 C.ar      1 <0>        -0.0832
      5 C5         -4.4392   -1.6571    1.6563 C.ar      1 <0>        -0.0443
      6 C6         -5.6595   -2.0973    1.1419 C.ar      1 <0>        -0.0722
      7 C7         -6.6686   -2.4833    2.0021 C.ar      1 <0>        -0.0388
      8 Cl1        -8.1856   -3.0369    1.3651 Cl        1 <0>        -0.0442
      9 C8         -3.3527   -1.2478    0.7418 C.2       1 <0>         0.0990
     10 C9         -3.4076   -1.2566   -0.6166 C.2       1 <0>        -0.2047
     11 C10        -2.1610   -0.7867   -1.0763 C.2       1 <0>        -0.1263
     12 C11        -1.4117   -0.5257    0.0127 C.2       1 <0>        -0.1189
     13 O1         -2.1361   -0.8021    1.1094 O.3       1 <0>        -0.1616
     14 C12         0.0021   -0.0041    0.0020 C.3       1 <0>         0.0991
     15 C13         1.3463    2.0098   -0.0000 C.3       1 <0>        -0.0428
     16 C14         1.2847    3.5386    0.0088 C.3       1 <0>         0.0812
     17 H1          0.6731    3.8824   -0.8254 H         1 <0>         0.1234
     18 C15         2.6988    4.1067   -0.1274 C.3       1 <0>        -0.1899
     19 O2          0.7083    3.9850    1.2378 O.3       1 <0>        -0.5571
     20 H2         -8.2048   -1.9778    4.5385 H         1 <0>         0.0856
     21 H3         -8.1897   -3.6094    3.8272 H         1 <0>         0.0807
     22 H4         -7.1516   -3.2381    5.2246 H         1 <0>         0.0790
     23 H5         -5.1236   -1.9391    4.9564 H         1 <0>         0.1435
     24 H6         -3.3104   -1.2553    3.4426 H         1 <0>         0.1349
     25 H7         -5.8130   -2.1398    0.0737 H         1 <0>         0.1426
     26 H8         -4.2460   -1.5608   -1.2257 H         1 <0>         0.1657
     27 H9         -1.8620   -0.6618   -2.1065 H         1 <0>         0.1653
     28 H10         0.5123   -0.3556   -0.8948 H         1 <0>         0.1579
     29 H11         0.5293   -0.3651    0.8851 H         1 <0>         0.1450
     30 H12         1.8828    1.6627    0.8830 H         1 <0>         0.1363
     31 H13         1.8658    1.6723   -0.8968 H         1 <0>         0.1440
     32 H14         3.1384    3.7662   -1.0648 H         1 <0>         0.0802
     33 H15         2.6549    5.1958   -0.1211 H         1 <0>         0.0881
     34 H16         3.3104    3.7629    0.7068 H         1 <0>         0.0724
     35 H17         1.2014    3.7148    2.0245 H         1 <0>         0.3907
     36 N1         -0.0267    1.4707    0.0102 N.4       1 <0>        -0.5190
     37 H18        -0.5117    1.7953    0.8550 H         1 <0>         0.4385
     38 H19        -0.5277    1.8044   -0.8216 H         1 <0>         0.4342
@<TRIPOS>BOND
     1    1    2 1
     2    1   20 1
     3    1   21 1
     4    1   22 1
     5    2    7 ar
     6    2    3 ar
     7    3    4 ar
     8    3   23 1
     9    4    5 ar
    10    4   24 1
    11    5    6 ar
    12    5    9 1
    13    6    7 ar
    14    6   25 1
    15    7    8 1
    16    9   13 1
    17    9   10 2
    18   10   11 1
    19   10   26 1
    20   11   12 2
    21   11   27 1
    22   12   13 1
    23   12   14 1
    24   14   28 1
    25   14   29 1
    26   14   36 1
    27   15   16 1
    28   15   30 1
    29   15   31 1
    30   15   36 1
    31   16   17 1
    32   16   18 1
    33   16   19 1
    34   18   32 1
    35   18   33 1
    36   18   34 1
    37   19   35 1
    38   36   37 1
    39   36   38 1
@<TRIPOS>MOLECULE
ZINC31978471
   49    50     0     0     0
SMALL
USER_CHARGES
4-[(1S,2R)-2-(diethylamino)cyclohexoxy]-2-methyl-aniline
@<TRIPOS>ATOM
      1 C1          1.7080    5.7026    3.5075 C.3       1 <0>        -0.1888
      2 C2          1.1396    4.5595    4.3508 C.3       1 <0>        -0.0151
      3 N1          0.7270    5.0767    5.6623 N.4       1 <0>        -0.3978
      4 C3         -0.4940    5.8855    5.5489 C.3       1 <0>        -0.0178
      5 C4         -0.6259    6.7853    6.7793 C.3       1 <0>        -0.1877
      6 C5          0.5465    3.9832    6.6264 C.3       1 <0>         0.0407
      7 H1          0.1838    4.4304    7.5637 H         1 <0>         0.1478
      8 C6          1.8842    3.2755    6.8514 C.3       1 <0>        -0.1378
      9 C7          1.6961    2.1365    7.8555 C.3       1 <0>        -0.1168
     10 C8          0.6760    1.1366    7.3074 C.3       1 <0>        -0.1243
     11 C9         -0.6617    1.8443    7.0825 C.3       1 <0>        -0.1422
     12 C10        -0.4736    2.9833    6.0783 C.3       1 <0>         0.0732
     13 H2         -1.4305    3.4750    5.8489 H         1 <0>         0.0897
     14 O1         -0.0014    2.4522    4.8386 O.3       1 <0>        -0.3180
     15 C11        -0.9375    1.9787    3.9731 C.ar      1 <0>         0.0409
     16 C12        -2.2699    1.9237    4.3551 C.ar      1 <0>        -0.1555
     17 C13        -3.2210    1.4427    3.4771 C.ar      1 <0>        -0.1663
     18 C14        -2.8441    1.0192    2.2093 C.ar      1 <0>         0.2135
     19 C15        -1.5096    1.0701    1.8295 C.ar      1 <0>        -0.1306
     20 C16        -0.5595    1.5515    2.7090 C.ar      1 <0>        -0.0919
     21 C17        -1.0987    0.6059    0.4559 C.3       1 <0>        -0.1142
     22 N2         -3.8081    0.5370    1.3168 N.pl3     1 <0>        -0.8952
     23 H3          2.0169    5.3152    2.5254 H         1 <0>         0.1042
     24 H4          2.5782    6.1387    4.0199 H         1 <0>         0.0776
     25 H5          0.9375    6.4757    3.3709 H         1 <0>         0.0753
     26 H6          0.2694    4.1234    3.8384 H         1 <0>         0.1386
     27 H7          1.9101    3.7864    4.4874 H         1 <0>         0.1351
     28 H8         -0.4387    6.5080    4.6437 H         1 <0>         0.1328
     29 H9         -1.3688    5.2218    5.4846 H         1 <0>         0.1225
     30 H10        -1.5402    7.3909    6.6943 H         1 <0>         0.1066
     31 H11         0.2489    7.4491    6.8436 H         1 <0>         0.0827
     32 H12        -0.6812    6.1628    7.6845 H         1 <0>         0.0777
     33 H13         2.2478    2.8667    5.8971 H         1 <0>         0.0969
     34 H14         2.6176    3.9944    7.2455 H         1 <0>         0.0880
     35 H15         2.6579    1.6277    8.0172 H         1 <0>         0.0864
     36 H16         1.3326    2.5453    8.8098 H         1 <0>         0.0734
     37 H17         1.0396    0.7278    6.3531 H         1 <0>         0.0778
     38 H18         0.5408    0.3177    8.0293 H         1 <0>         0.0790
     39 H19        -1.3951    1.1254    6.6884 H         1 <0>         0.0894
     40 H20        -1.0253    2.2531    8.0368 H         1 <0>         0.0852
     41 H21        -2.5635    2.2569    5.3396 H         1 <0>         0.1237
     42 H22        -4.2584    1.3999    3.7747 H         1 <0>         0.1248
     43 H23         0.4780    1.5950    2.4123 H         1 <0>         0.1282
     44 H24        -0.0109    0.7214    0.3400 H         1 <0>         0.0704
     45 H25        -1.6147    1.2100   -0.3049 H         1 <0>         0.0693
     46 H26        -1.3706   -0.4525    0.3300 H         1 <0>         0.0706
     47 H27        -3.5092    0.2017    0.3127 H         1 <0>         0.4205
     48 H28        -4.8648    0.4933    1.6193 H         1 <0>         0.4204
     49 H29         1.5304    5.7282    6.0367 H         1 <0>         0.4370
@<TRIPOS>BOND
     1    1    2 1
     2    1   23 1
     3    1   24 1
     4    1   25 1
     5    2    3 1
     6    2   26 1
     7    2   27 1
     8    3    4 1
     9    3    6 1
    10    3   49 1
    11    4    5 1
    12    4   28 1
    13    4   29 1
    14    5   30 1
    15    5   31 1
    16    5   32 1
    17    6    7 1
    18    6   12 1
    19    6    8 1
    20    8    9 1
    21    8   33 1
    22    8   34 1
    23    9   10 1
    24    9   35 1
    25    9   36 1
    26   10   11 1
    27   10   37 1
    28   10   38 1
    29   11   12 1
    30   11   39 1
    31   11   40 1
    32   12   13 1
    33   12   14 1
    34   14   15 1
    35   15   20 ar
    36   15   16 ar
    37   16   17 ar
    38   16   41 1
    39   17   18 ar
    40   17   42 1
    41   18   19 ar
    42   18   22 1
    43   19   20 ar
    44   19   21 1
    45   20   43 1
    46   21   44 1
    47   21   45 1
    48   21   46 1
    49   22   47 1
    50   22   48 1
@<TRIPOS>MOLECULE
ZINC37701903
   48    49     0     0     0
SMALL
USER_CHARGES

@<TRIPOS>ATOM
      1 C1         -0.0187    1.5258    0.0104 C.3       1 <0>        -0.1568
      2 C2          0.0021   -0.0041    0.0020 C.3       1 <0>        -0.1517
      3 C3         -1.4333   -0.5336    0.0129 C.3       1 <0>        -0.0115
      4 N1         -1.4134   -2.0025    0.0048 N.4       1 <0>        -0.5096
      5 C4         -2.7915   -2.5110    0.0152 C.3       1 <0>         0.0491
      6 C5         -2.7711   -4.0178    0.0069 C.ar      1 <0>        -0.1685
      7 C6         -2.7675   -4.7014   -1.1949 C.ar      1 <0>        -0.0896
      8 C7         -2.7492   -6.0826   -1.2052 C.ar      1 <0>        -0.0926
      9 C8         -2.7340   -6.7839   -0.0083 C.ar      1 <0>         0.1299
     10 C9         -2.7373   -6.0957    1.1963 C.ar      1 <0>        -0.0903
     11 C10        -2.7503   -4.7143    1.2012 C.ar      1 <0>        -0.0897
     12 C11        -2.7209   -6.8543    2.4983 C.3       1 <0>        -0.1260
     13 O1         -2.7165   -8.1428   -0.0158 O.3       1 <0>        -0.3000
     14 C12        -1.4350   -8.7750   -0.0258 C.3       1 <0>         0.1017
     15 H1         -0.7022   -8.1419   -0.5260 H         1 <0>         0.0780
     16 C13        -0.9777   -9.0963    1.4187 C.3       1 <0>        -0.1478
     17 C14         0.0327  -10.2512    1.2084 C.3       1 <0>        -0.1234
     18 C15        -0.5856  -11.0929    0.0731 C.3       1 <0>        -0.1608
     19 C16        -1.5181  -10.1527   -0.7149 C.3       1 <0>         0.1044
     20 H2         -1.1846  -10.0734   -1.7496 H         1 <0>         0.0648
     21 O2         -2.8595  -10.6431   -0.6686 O.3       1 <0>        -0.5469
     22 C17        -2.7463   -6.8271   -2.5155 C.3       1 <0>        -0.1232
     23 H3          1.0039    1.9031    0.0027 H         1 <0>         0.0774
     24 H4         -0.5459    1.8868   -0.8726 H         1 <0>         0.0673
     25 H5         -0.5289    1.8773    0.9072 H         1 <0>         0.0673
     26 H6          0.5123   -0.3556   -0.8948 H         1 <0>         0.0859
     27 H7          0.5293   -0.3651    0.8851 H         1 <0>         0.0859
     28 H8         -1.9435   -0.1821    0.9097 H         1 <0>         0.1320
     29 H9         -1.9605   -0.1726   -0.8702 H         1 <0>         0.1319
     30 H10        -0.9411   -2.3279   -0.8254 H         1 <0>         0.4269
     31 H11        -3.3017   -2.1594    0.9120 H         1 <0>         0.1379
     32 H12        -3.3187   -2.1499   -0.8678 H         1 <0>         0.1378
     33 H13        -2.7793   -4.1550   -2.1264 H         1 <0>         0.1342
     34 H14        -2.7484   -4.1780    2.1386 H         1 <0>         0.1343
     35 H15        -1.6894   -7.0236    2.8072 H         1 <0>         0.0782
     36 H16        -3.2387   -6.2751    3.2628 H         1 <0>         0.0727
     37 H17        -3.2227   -7.8129    2.3666 H         1 <0>         0.0842
     38 H18        -0.4891   -8.2329    1.8703 H         1 <0>         0.0713
     39 H19        -1.8204   -9.4262    2.0263 H         1 <0>         0.0878
     40 H20         1.0037   -9.8584    0.9068 H         1 <0>         0.0702
     41 H21         0.1264  -10.8463    2.1169 H         1 <0>         0.0776
     42 H22         0.1997  -11.4714   -0.5813 H         1 <0>         0.0761
     43 H23        -1.1558  -11.9224    0.4912 H         1 <0>         0.0835
     44 H24        -2.9770  -11.5073   -1.0863 H         1 <0>         0.3812
     45 H25        -1.7180   -6.9929   -2.8368 H         1 <0>         0.0737
     46 H26        -3.2468   -7.7871   -2.3891 H         1 <0>         0.0844
     47 H27        -3.2719   -6.2396   -3.2683 H         1 <0>         0.0741
     48 H28        -0.9254   -2.3367    0.8222 H         1 <0>         0.4269
@<TRIPOS>BOND
     1    1    2 1
     2    1   23 1
     3    1   24 1
     4    1   25 1
     5    2    3 1
     6    2   26 1
     7    2   27 1
     8    3    4 1
     9    3   28 1
    10    3   29 1
    11    4    5 1
    12    4   30 1
    13    4   48 1
    14    5    6 1
    15    5   31 1
    16    5   32 1
    17    6   11 ar
    18    6    7 ar
    19    7    8 ar
    20    7   33 1
    21    8    9 ar
    22    8   22 1
    23    9   10 ar
    24    9   13 1
    25   10   11 ar
    26   10   12 1
    27   11   34 1
    28   12   35 1
    29   12   36 1
    30   12   37 1
    31   13   14 1
    32   14   15 1
    33   14   19 1
    34   14   16 1
    35   16   17 1
    36   16   38 1
    37   16   39 1
    38   17   18 1
    39   17   40 1
    40   17   41 1
    41   18   19 1
    42   18   42 1
    43   18   43 1
    44   19   20 1
    45   19   21 1
    46   21   44 1
    47   22   45 1
    48   22   46 1
    49   22   47 1
@<TRIPOS>MOLECULE
ZINC40509615
   46    47     0     0     0
SMALL
USER_CHARGES

@<TRIPOS>ATOM
      1 C1         -5.8184   -1.4847   -1.4574 C.3       1 <0>        -0.1533
      2 C2         -4.3632   -1.9459   -1.3545 C.3       1 <0>        -0.1213
      3 C3         -4.1721   -2.7470   -0.0651 C.3       1 <0>        -0.0418
      4 H1         -4.4999   -2.1498    0.7857 H         1 <0>         0.0571
      5 C4         -4.9998   -4.0318   -0.1355 C.3       1 <0>        -0.1491
      6 C5         -2.7152   -3.0964    0.0979 C.ar      1 <0>        -0.0708
      7 C6         -2.0726   -3.8490   -0.8662 C.ar      1 <0>        -0.1041
      8 C7         -0.7363   -4.1703   -0.7170 C.ar      1 <0>        -0.0982
      9 C8         -0.0391   -3.7391    0.3968 C.ar      1 <0>        -0.1078
     10 C9         -0.6768   -2.9864    1.3634 C.ar      1 <0>        -0.1044
     11 C10        -2.0167   -2.6577    1.2133 C.ar      1 <0>         0.0778
     12 O1         -2.6450   -1.9125    2.1603 O.3       1 <0>        -0.2514
     13 C11        -3.3188   -2.5649    3.1406 C.ar      1 <0>         0.3581
     14 C12        -4.0550   -1.8398    4.0693 C.ar      1 <0>        -0.2573
     15 C13        -4.7377   -2.5172    5.0642 C.ar      1 <0>         0.0267
     16 C14        -4.6596   -3.9030    5.0951 C.ar      1 <0>        -0.2081
     17 C15        -3.9090   -4.5587    4.1398 C.ar      1 <0>         0.2168
     18 N1         -3.2731   -3.8855    3.1998 N.ar      1 <0>        -0.5204
     19 C16        -3.8193   -6.0628    4.1675 C.3       1 <0>        -0.1209
     20 C17        -5.5472   -1.7678    6.0909 C.3       1 <0>        -0.1371
     21 C18        -4.1088   -0.3356    3.9946 C.3       1 <0>         0.0570
     22 N2         -5.2398    0.0726    3.1506 N.4       1 <0>        -0.6370
     23 H2         -5.9546   -0.9139   -2.3759 H         1 <0>         0.0624
     24 H3         -6.4753   -2.3545   -1.4693 H         1 <0>         0.0612
     25 H4         -6.0621   -0.8571   -0.6001 H         1 <0>         0.0430
     26 H5         -4.1195   -2.5735   -2.2117 H         1 <0>         0.0727
     27 H6         -3.7064   -1.0761   -1.3426 H         1 <0>         0.0653
     28 H7         -4.6720   -4.6291   -0.9864 H         1 <0>         0.0645
     29 H8         -4.8636   -4.6026    0.7830 H         1 <0>         0.0560
     30 H9         -6.0536   -3.7791   -0.2534 H         1 <0>         0.0621
     31 H10        -2.6148   -4.1870   -1.7369 H         1 <0>         0.1318
     32 H11        -0.2360   -4.7593   -1.4714 H         1 <0>         0.1332
     33 H12         1.0047   -3.9914    0.5109 H         1 <0>         0.1343
     34 H13        -0.1320   -2.6502    2.2332 H         1 <0>         0.1280
     35 H14        -5.1803   -4.4621    5.8585 H         1 <0>         0.1513
     36 H15        -4.6241   -6.4859    3.5664 H         1 <0>         0.0930
     37 H16        -2.8582   -6.3770    3.7607 H         1 <0>         0.0877
     38 H17        -3.9109   -6.4133    5.1956 H         1 <0>         0.0887
     39 H18        -6.5688   -1.6470    5.7306 H         1 <0>         0.0889
     40 H19        -5.5556   -2.3277    7.0262 H         1 <0>         0.0942
     41 H20        -5.1026   -0.7869    6.2587 H         1 <0>         0.0783
     42 H21        -4.2370    0.0736    4.9967 H         1 <0>         0.1443
     43 H22        -3.1804    0.0403    3.5646 H         1 <0>         0.1449
     44 H23        -5.1211   -0.3063    2.2230 H         1 <0>         0.4333
     45 H24        -6.0992   -0.2754    3.5486 H         1 <0>         0.4314
     46 H25        -5.2758    1.0797    3.1005 H         1 <0>         0.4389
@<TRIPOS>BOND
     1    1    2 1
     2    1   23 1
     3    1   24 1
     4    1   25 1
     5    2    3 1
     6    2   26 1
     7    2   27 1
     8    3    4 1
     9    3    5 1
    10    3    6 1
    11    5   28 1
    12    5   29 1
    13    5   30 1
    14    6   11 ar
    15    6    7 ar
    16    7    8 ar
    17    7   31 1
    18    8    9 ar
    19    8   32 1
    20    9   10 ar
    21    9   33 1
    22   10   11 ar
    23   10   34 1
    24   11   12 1
    25   12   13 1
    26   13   18 ar
    27   13   14 ar
    28   14   15 ar
    29   14   21 1
    30   15   16 ar
    31   15   20 1
    32   16   17 ar
    33   16   35 1
    34   17   18 ar
    35   17   19 1
    36   19   36 1
    37   19   37 1
    38   19   38 1
    39   20   39 1
    40   20   40 1
    41   20   41 1
    42   21   22 1
    43   21   42 1
    44   21   43 1
    45   22   44 1
    46   22   45 1
    47   22   46 1
@<TRIPOS>MOLECULE
ZINC51998573
   39    40     0     0     0
SMALL
USER_CHARGES

@<TRIPOS>ATOM
      1 C1         -0.0167    1.3792    0.0096 C.ar      1 <0>        -0.0364
      2 C2          1.1698    2.0871    0.0021 C.ar      1 <0>        -0.1727
      3 C3          2.3802    1.4101   -0.0130 C.ar      1 <0>         0.1332
      4 C4          2.3970    0.0228   -0.0206 C.ar      1 <0>        -0.1671
      5 C5          1.2088   -0.6814   -0.0130 C.ar      1 <0>        -0.0488
      6 C6          0.0021   -0.0041    0.0020 C.ar      1 <0>        -0.0584
      7 Cl1        -1.4900   -0.8913    0.0114 Cl        1 <0>        -0.0336
      8 C7          3.7107   -0.7153   -0.0376 C.3       1 <0>         0.0510
      9 N1          4.2689   -0.7528    1.3207 N.4       1 <0>        -0.5044
     10 C8          5.5496   -1.4722    1.3042 C.3       1 <0>         0.0360
     11 H1          5.4058   -2.4599    0.8660 H         1 <0>         0.1467
     12 C9          6.5647   -0.6874    0.4709 C.3       1 <0>        -0.1408
     13 C10         7.8986   -1.4368    0.4537 C.3       1 <0>        -0.1201
     14 C11         8.4190   -1.5846    1.8848 C.3       1 <0>        -0.1293
     15 C12         7.4038   -2.3694    2.7181 C.3       1 <0>        -0.1503
     16 C13         6.0700   -1.6201    2.7354 C.3       1 <0>         0.0883
     17 H2          6.2138   -0.6324    3.1735 H         1 <0>         0.0800
     18 O1          5.1218   -2.3531    3.5137 O.3       1 <0>        -0.5759
     19 O2          3.5485    2.1048   -0.0209 O.3       1 <0>        -0.3333
     20 C14         3.4554    3.5307   -0.0129 C.3       1 <0>         0.4146
     21 F1          2.7559    3.9588   -1.1463 F         1 <0>        -0.1858
     22 F2          2.7781    3.9473    1.1381 F         1 <0>        -0.1895
     23 H3         -0.9593    1.9061    0.0260 H         1 <0>         0.1545
     24 H4          1.1548    3.1670    0.0076 H         1 <0>         0.1546
     25 H5          1.2214   -1.7613   -0.0189 H         1 <0>         0.1554
     26 H6          3.5510   -1.7333   -0.3929 H         1 <0>         0.1439
     27 H7          4.4065   -0.2034   -0.7023 H         1 <0>         0.1446
     28 H8          4.4168    0.1896    1.6497 H         1 <0>         0.4240
     29 H9          6.1940   -0.5821   -0.5487 H         1 <0>         0.0959
     30 H10         6.7085    0.3002    0.9091 H         1 <0>         0.0904
     31 H11         7.7548   -2.4244    0.0155 H         1 <0>         0.0777
     32 H12         8.6218   -0.8777   -0.1400 H         1 <0>         0.0891
     33 H13         9.3692   -2.1185    1.8726 H         1 <0>         0.0842
     34 H14         8.5627   -0.5970    2.3230 H         1 <0>         0.0724
     35 H15         7.2601   -3.3571    2.2800 H         1 <0>         0.0842
     36 H16         7.7746   -2.4748    3.7377 H         1 <0>         0.0879
     37 H17         5.3868   -2.4852    4.4342 H         1 <0>         0.4086
     38 H18         4.4572    3.9602   -0.0205 H         1 <0>         0.1939
     39 H19         3.6248   -1.2266    1.9361 H         1 <0>         0.4353
@<TRIPOS>BOND
     1    1    6 ar
     2    1    2 ar
     3    1   23 1
     4    2    3 ar
     5    2   24 1
     6    3    4 ar
     7    3   19 1
     8    4    5 ar
     9    4    8 1
    10    5    6 ar
    11    5   25 1
    12    6    7 1
    13    8    9 1
    14    8   26 1
    15    8   27 1
    16    9   10 1
    17    9   28 1
    18    9   39 1
    19   10   11 1
    20   10   16 1
    21   10   12 1
    22   12   13 1
    23   12   29 1
    24   12   30 1
    25   13   14 1
    26   13   31 1
    27   13   32 1
    28   14   15 1
    29   14   33 1
    30   14   34 1
    31   15   16 1
    32   15   35 1
    33   15   36 1
    34   16   17 1
    35   16   18 1
    36   18   37 1
    37   19   20 1
    38   20   21 1
    39   20   22 1
    40   20   38 1
@<TRIPOS>MOLECULE
ZINC01994541
   32    33     0     0     0
SMALL
USER_CHARGES
N-(3,5-dichlorophenyl)-2-(4,5-dihydro-1H-imidazol-2-ylsulfanyl)propanamide
@<TRIPOS>ATOM
      1 C1          1.4073    2.0405   -0.0094 C.3       1 <0>        -0.1471
      2 C2         -0.0250    1.5028    0.0090 C.3       1 <0>        -0.0998
      3 H1         -0.5585    1.8599   -0.8719 H         1 <0>         0.1292
      4 C3          0.0039   -0.0039    0.0022 C.2       1 <0>         0.5370
      5 O1         -0.1519   -0.6181    1.0365 O.2       1 <0>        -0.4966
      6 N1          0.2029   -0.6689   -1.1530 N.am      1 <0>        -0.6630
      7 C4          0.3264   -2.0627   -1.1456 C.ar      1 <0>         0.1707
      8 C5          1.1842   -2.6897   -2.0395 C.ar      1 <0>        -0.1310
      9 C6          1.3083   -4.0664   -2.0266 C.ar      1 <0>        -0.0050
     10 C7          0.5703   -4.8204   -1.1313 C.ar      1 <0>        -0.1154
     11 C8         -0.2896   -4.1985   -0.2432 C.ar      1 <0>        -0.0049
     12 C9         -0.4131   -2.8216   -0.2482 C.ar      1 <0>        -0.1093
     13 Cl1        -1.2137   -5.1480    0.8784 Cl        1 <0>        -0.0463
     14 Cl2         2.3859   -4.8505   -3.1391 Cl        1 <0>        -0.0479
     15 S1         -0.8683    2.0834    1.5016 S.3       1 <0>         0.0363
     16 C10        -0.8933    3.8164    1.1843 C.2       1 <0>         0.3436
     17 N2         -0.3923    4.3420    0.1132 N.2       1 <0>        -0.5794
     18 C11        -0.5665    5.8008    0.1378 C.3       1 <0>         0.0285
     19 C12        -1.2922    6.0681    1.4715 C.3       1 <0>         0.0814
     20 N3         -1.4494    4.7219    2.0470 N.pl3     1 <0>        -0.7364
     21 H2          1.9408    1.6834    0.8715 H         1 <0>         0.0696
     22 H3          1.9151    1.6908   -0.9083 H         1 <0>         0.0702
     23 H4          1.3864    3.1303   -0.0046 H         1 <0>         0.1005
     24 H5          0.2605   -0.1814   -1.9896 H         1 <0>         0.4196
     25 H6          1.7571   -2.1019   -2.7415 H         1 <0>         0.1456
     26 H7          0.6653   -5.8962   -1.1258 H         1 <0>         0.1477
     27 H8         -1.0838   -2.3367    0.4456 H         1 <0>         0.1579
     28 H9          0.4016    6.3015    0.1227 H         1 <0>         0.0868
     29 H10        -1.1774    6.1269   -0.7039 H         1 <0>         0.0868
     30 H11        -0.6842    6.6984    2.1204 H         1 <0>         0.0761
     31 H12        -2.2654    6.5261    1.2946 H         1 <0>         0.0758
     32 H13        -1.8734    4.5127    2.8939 H         1 <0>         0.4188
@<TRIPOS>BOND
     1    1    2 1
     2    1   21 1
     3    1   22 1
     4    1   23 1
     5    2    3 1
     6    2    4 1
     7    2   15 1
     8    4    5 2
     9    4    6 am
    10    6    7 1
    11    6   24 1
    12    7   12 ar
    13    7    8 ar
    14    8    9 ar
    15    8   25 1
    16    9   10 ar
    17    9   14 1
    18   10   11 ar
    19   10   26 1
    20   11   12 ar
    21   11   13 1
    22   12   27 1
    23   15   16 1
    24   16   20 1
    25   16   17 2
    26   17   18 1
    27   18   19 1
    28   18   28 1
    29   18   29 1
    30   19   20 1
    31   19   30 1
    32   19   31 1
    33   20   32 1
@<TRIPOS>MOLECULE
ZINC37083539
   40    41     0     0     0
SMALL
USER_CHARGES

@<TRIPOS>ATOM
      1 C1          0.3448   -1.2734   -1.1434 C.3       1 <0>        -0.1472
      2 C2         -0.2699   -0.5696    0.0680 C.3       1 <0>        -0.1922
      3 C3          0.5333   -0.9186    1.3225 C.3       1 <0>         0.1578
      4 H1          1.5361   -0.4988    1.2429 H         1 <0>         0.0857
      5 C4          0.6239   -2.4410    1.4673 C.3       1 <0>        -0.1336
      6 C5          1.3064   -2.7836    2.7935 C.3       1 <0>        -0.1194
      7 C6          0.4725   -2.2368    3.9545 C.3       1 <0>        -0.1363
      8 C7          0.3802   -0.7122    3.8380 C.3       1 <0>         0.1156
      9 N1         -0.1389   -0.3673    2.5070 N.pl3     1 <0>        -0.9899
     10 S1         -1.4586    0.6199    2.3452 S.o2      1 <0>         2.6882
     11 O1         -1.6423    1.2612    3.5998 O.2       1 <0>        -0.9530
     12 O2         -1.2766    1.3465    1.1376 O.2       1 <0>        -0.9445
     13 C8         -2.8601   -0.4197    2.1010 C.ar      1 <0>        -0.6510
     14 C9         -3.3289   -0.6540    0.8204 C.ar      1 <0>        -0.0276
     15 C10        -4.4253   -1.4672    0.6220 C.ar      1 <0>        -0.0691
     16 C11        -5.0623   -2.0545    1.7172 C.ar      1 <0>        -0.0547
     17 C12        -4.5838   -1.8137    3.0068 C.ar      1 <0>        -0.1077
     18 C13        -3.4832   -1.0027    3.1903 C.ar      1 <0>        -0.0217
     19 C14        -6.2366   -2.9256    1.5126 C.2       1 <0>         0.3802
     20 S2         -6.3255   -3.9318    0.1304 S.2       1 <0>        -0.5238
     21 N2         -7.2386   -2.9286    2.4140 N.pl3     1 <0>        -0.7562
     22 H2          0.3873   -2.3466   -0.9572 H         1 <0>         0.0589
     23 H3         -0.2675   -1.0815   -2.0245 H         1 <0>         0.0621
     24 H4          1.3526   -0.8937   -1.3115 H         1 <0>         0.0591
     25 H5         -0.2485    0.5089   -0.0888 H         1 <0>         0.1273
     26 H6         -1.3016   -0.8979    0.1941 H         1 <0>         0.0664
     27 H7         -0.3788   -2.8681    1.4531 H         1 <0>         0.0675
     28 H8          1.2061   -2.8509    0.6420 H         1 <0>         0.0805
     29 H9          1.3943   -3.8660    2.8877 H         1 <0>         0.0661
     30 H10         2.2997   -2.3354    2.8172 H         1 <0>         0.0661
     31 H11        -0.5288   -2.6659    3.9169 H         1 <0>         0.0658
     32 H12         0.9469   -2.5014    4.8995 H         1 <0>         0.0776
     33 H13        -0.2931   -0.3272    4.6039 H         1 <0>         0.0942
     34 H14         1.3705   -0.2753    3.9660 H         1 <0>         0.0788
     35 H15        -2.8355   -0.1988   -0.0256 H         1 <0>         0.1587
     36 H16        -4.7905   -1.6489   -0.3781 H         1 <0>         0.1553
     37 H17        -5.0717   -2.2648    3.8582 H         1 <0>         0.1373
     38 H18        -3.1095   -0.8189    4.1868 H         1 <0>         0.1463
     39 H19        -7.1882   -2.3585    3.1971 H         1 <0>         0.4055
     40 H20        -8.0101   -3.5009    2.2795 H         1 <0>         0.4270
@<TRIPOS>BOND
     1    1    2 1
     2    1   22 1
     3    1   23 1
     4    1   24 1
     5    2    3 1
     6    2   25 1
     7    2   26 1
     8    3    4 1
     9    3    9 1
    10    3    5 1
    11    5    6 1
    12    5   27 1
    13    5   28 1
    14    6    7 1
    15    6   29 1
    16    6   30 1
    17    7    8 1
    18    7   31 1
    19    7   32 1
    20    8    9 1
    21    8   33 1
    22    8   34 1
    23    9   10 1
    24   10   11 2
    25   10   12 2
    26   10   13 1
    27   13   18 ar
    28   13   14 ar
    29   14   15 ar
    30   14   35 1
    31   15   16 ar
    32   15   36 1
    33   16   17 ar
    34   16   19 1
    35   17   18 ar
    36   17   37 1
    37   18   38 1
    38   19   20 2
    39   19   21 1
    40   21   39 1
    41   21   40 1
@<TRIPOS>MOLECULE
ZINC41806190
   37    38     0     0     0
SMALL
USER_CHARGES

@<TRIPOS>ATOM
      1 C1         -0.8288    1.7293    0.0578 C.3       1 <0>        -0.1611
      2 C2         -0.2733    0.3238   -0.1803 C.3       1 <0>         0.0149
      3 C3          0.8127    0.0360    0.8241 C.ar      1 <0>        -0.0396
      4 C4          1.1349    0.9788    1.7822 C.ar      1 <0>        -0.1211
      5 C5          2.1322    0.7150    2.7048 C.ar      1 <0>         0.1278
      6 C6          2.8070   -0.4949    2.6677 C.ar      1 <0>        -0.0581
      7 C7          2.4832   -1.4372    1.7090 C.ar      1 <0>        -0.0618
      8 C8          1.4826   -1.1738    0.7903 C.ar      1 <0>        -0.0449
      9 Cl1         1.0723   -2.3595   -0.4094 Cl        1 <0>        -0.0131
     10 Cl2         4.0586   -0.8271    3.8240 Cl        1 <0>        -0.0201
     11 F1          2.4481    1.6366    3.6408 F         1 <0>        -0.1113
     12 C9          0.2951    0.2376   -1.5733 C.2       1 <0>         0.5068
     13 O1          1.2704    0.9037   -1.8760 O.co2     1 <0>        -0.6190
     14 O2         -0.2202   -0.4982   -2.3976 O.co2     1 <0>        -0.6542
     15 N1         -1.3527   -0.6613   -0.0301 N.4       1 <0>        -0.4806
     16 C10        -2.0168   -0.4662    1.2656 C.3       1 <0>         0.0080
     17 C11        -1.1814   -1.1167    2.3726 C.3       1 <0>        -0.1927
     18 C12        -1.9193   -0.9772    3.7067 C.3       1 <0>         0.0683
     19 O3         -3.2111   -1.5787    3.6002 O.3       1 <0>        -0.3709
     20 C13        -4.0537   -0.9805    2.6132 C.3       1 <0>         0.0657
     21 C14        -3.4017   -1.1201    1.2352 C.3       1 <0>        -0.1774
     22 H1         -0.0661    2.4680   -0.1888 H         1 <0>         0.1121
     23 H2         -1.7037    1.8859   -0.5732 H         1 <0>         0.0850
     24 H3         -1.1123    1.8354    1.1049 H         1 <0>         0.0745
     25 H4          0.6087    1.9215    1.8106 H         1 <0>         0.1669
     26 H5          3.0087   -2.3803    1.6796 H         1 <0>         0.1642
     27 H6         -2.0240   -0.5406   -0.7737 H         1 <0>         0.4316
     28 H7         -2.1214    0.6003    1.4648 H         1 <0>         0.1427
     29 H8         -1.0353   -2.1728    2.1458 H         1 <0>         0.0937
     30 H9         -0.2134   -0.6199    2.4380 H         1 <0>         0.1019
     31 H10        -1.3496   -1.4758    4.4910 H         1 <0>         0.1117
     32 H11        -2.0292    0.0790    3.9526 H         1 <0>         0.0632
     33 H12        -5.0218   -1.4814    2.6097 H         1 <0>         0.1132
     34 H13        -4.1916    0.0757    2.8448 H         1 <0>         0.0635
     35 H14        -4.0215   -0.6258    0.4871 H         1 <0>         0.1011
     36 H15        -3.3004   -2.1763    0.9854 H         1 <0>         0.0950
     37 H16        -0.9666   -1.5925   -0.0734 H         1 <0>         0.4140
@<TRIPOS>BOND
     1    1    2 1
     2    1   22 1
     3    1   23 1
     4    1   24 1
     5    2    3 1
     6    2   12 1
     7    2   15 1
     8    3    8 ar
     9    3    4 ar
    10    4    5 ar
    11    4   25 1
    12    5    6 ar
    13    5   11 1
    14    6    7 ar
    15    6   10 1
    16    7    8 ar
    17    7   26 1
    18    8    9 1
    19   12   13 2
    20   12   14 1
    21   15   16 1
    22   15   27 1
    23   15   37 1
    24   16   21 1
    25   16   17 1
    26   16   28 1
    27   17   18 1
    28   17   29 1
    29   17   30 1
    30   18   19 1
    31   18   31 1
    32   18   32 1
    33   19   20 1
    34   20   21 1
    35   20   33 1
    36   20   34 1
    37   21   35 1
    38   21   36 1
@<TRIPOS>MOLECULE
ZINC49630609
   35    36     0     0     0
SMALL
USER_CHARGES

@<TRIPOS>ATOM
      1 C1         -0.0167    1.3794    0.0096 C.ar      1 <0>        -0.1920
      2 C2          1.1697    2.0901    0.0021 C.ar      1 <0>        -0.0588
      3 C3          2.3780    1.4202   -0.0130 C.ar      1 <0>        -0.0833
      4 C4          2.4005    0.0301   -0.0206 C.ar      1 <0>         0.2899
      5 C5          1.2079   -0.6805   -0.0130 C.ar      1 <0>        -0.2401
      6 C6          0.0021   -0.0041    0.0020 C.ar      1 <0>         0.0256
      7 Cl1        -1.4899   -0.8916    0.0120 Cl        1 <0>        -0.0893
      8 N1          3.6210   -0.6505   -0.0363 N.2       1 <0>        -1.0546
      9 S1          3.6457   -2.3063   -0.0454 S.o2      1 <0>         2.4854
     10 O1          3.0606   -2.6844    1.1931 O.2       1 <0>        -1.0243
     11 O2          3.0361   -2.6712   -1.2760 O.2       1 <0>        -0.9960
     12 C7          5.4054   -2.7461   -0.0652 C.3       1 <0>        -0.6374
     13 C8          5.5503   -4.2692   -0.0747 C.3       1 <0>         0.0407
     14 H1          5.0643   -4.6744   -0.9623 H         1 <0>         0.1470
     15 C9          7.0349   -4.6396   -0.0930 C.3       1 <0>        -0.1318
     16 C10         7.1749   -6.1646   -0.1028 C.3       1 <0>        -0.1402
     17 C11         6.4476   -6.7419    1.1150 C.3       1 <0>        -0.1465
     18 C12         4.9848   -6.2936    1.0885 C.3       1 <0>        -0.0101
     19 N2          4.9183   -4.8278    1.1265 N.4       1 <0>        -0.5167
     20 Cl2         3.8666    2.3134   -0.0230 Cl        1 <0>        -0.0752
     21 H2         -0.9598    1.9054    0.0260 H         1 <0>         0.1285
     22 H3          1.1517    3.1700    0.0077 H         1 <0>         0.1317
     23 H4          1.2220   -1.7604   -0.0193 H         1 <0>         0.1164
     24 H5          5.8737   -2.3310   -0.9577 H         1 <0>         0.1701
     25 H6          5.8913   -2.3405    0.8222 H         1 <0>         0.1474
     26 H7          7.5024   -4.2255   -0.9863 H         1 <0>         0.1144
     27 H8          7.5219   -4.2351    0.7943 H         1 <0>         0.0919
     28 H9          6.7330   -6.5653   -1.0150 H         1 <0>         0.0835
     29 H10         8.2301   -6.4340   -0.0587 H         1 <0>         0.0956
     30 H11         6.4953   -7.8305    1.0851 H         1 <0>         0.1123
     31 H12         6.9224   -6.3810    2.0274 H         1 <0>         0.0891
     32 H13         4.5109   -6.6552    0.1759 H         1 <0>         0.1314
     33 H14         4.4640   -6.7031    1.9540 H         1 <0>         0.1369
     34 H15         5.4004   -4.4910    1.9465 H         1 <0>         0.4294
     35 H16         3.9528   -4.5371    1.1634 H         1 <0>         0.4291
@<TRIPOS>BOND
     1    1    6 ar
     2    1    2 ar
     3    1   21 1
     4    2    3 ar
     5    2   22 1
     6    3    4 ar
     7    3   20 1
     8    4    5 ar
     9    4    8 1
    10    5    6 ar
    11    5   23 1
    12    6    7 1
    13    8    9 1
    14    9   10 2
    15    9   11 2
    16    9   12 1
    17   12   13 1
    18   12   24 1
    19   12   25 1
    20   13   14 1
    21   13   19 1
    22   13   15 1
    23   15   16 1
    24   15   26 1
    25   15   27 1
    26   16   17 1
    27   16   28 1
    28   16   29 1
    29   17   18 1
    30   17   30 1
    31   17   31 1
    32   18   19 1
    33   18   32 1
    34   18   33 1
    35   19   34 1
    36   19   35 1
@<TRIPOS>MOLECULE
ZINC11865815
   41    43     0     0     0
SMALL
USER_CHARGES

@<TRIPOS>ATOM
      1 C1         -0.0655    1.3179   -0.0387 C.ar      1 <0>        -0.1198
      2 C2          1.1241    2.0250   -0.0462 C.ar      1 <0>        -0.1148
      3 C3          2.3174    1.3482   -0.0501 C.ar      1 <0>        -0.0993
      4 C4          2.3620   -0.0634   -0.0492 C.ar      1 <0>         0.1711
      5 C5          1.1650   -0.7617   -0.0514 C.ar      1 <0>        -0.1185
      6 C6         -0.0373   -0.0587   -0.0406 C.ar      1 <0>        -0.1111
      7 C7          1.0463   -2.2528   -0.0788 C.3       1 <0>        -0.0785
      8 C8          2.1082   -2.9966    0.6710 C.3       1 <0>        -0.0984
      9 C9          3.4309   -3.0366   -0.0544 C.3       1 <0>        -0.0684
     10 H1          3.2557   -3.3092   -1.0952 H         1 <0>         0.1182
     11 C10         4.1335   -1.7272   -0.0100 C.2       1 <0>         0.4266
     12 N1          3.6000   -0.5921   -0.0404 N.2       1 <0>        -0.6242
     13 O1          5.4791   -1.7633    0.0712 O.3       1 <0>        -0.4770
     14 S1          4.4866   -4.2957    0.7142 S.3       1 <0>        -0.1255
     15 C11         5.9606   -4.3370   -0.3424 C.3       1 <0>        -0.1387
     16 C12         6.9331   -5.3568    0.1918 C.2       1 <0>         0.5357
     17 O2          6.6588   -5.9931    1.1873 O.2       1 <0>        -0.4976
     18 N2          8.1076   -5.5617   -0.4366 N.am      1 <0>        -0.6680
     19 C13         9.0506   -6.4405    0.1108 C.ar      1 <0>         0.1133
     20 C14         8.6313   -7.5777    0.7875 C.ar      1 <0>        -0.0949
     21 C15         9.5637   -8.4430    1.3260 C.ar      1 <0>        -0.1094
     22 C16        10.9144   -8.1782    1.1925 C.ar      1 <0>        -0.1036
     23 C17        11.3372   -7.0467    0.5198 C.ar      1 <0>        -0.1354
     24 C18        10.4093   -6.1791   -0.0273 C.ar      1 <0>         0.0722
     25 F1         10.8223   -5.0763   -0.6895 F         1 <0>        -0.1373
     26 H2         -1.0096    1.8423   -0.0269 H         1 <0>         0.1262
     27 H3          1.1130    3.1049   -0.0493 H         1 <0>         0.1277
     28 H4          3.2419    1.9065   -0.0543 H         1 <0>         0.1264
     29 H5         -0.9685   -0.6057   -0.0333 H         1 <0>         0.1226
     30 H6          0.0774   -2.5265    0.3388 H         1 <0>         0.0897
     31 H7          1.0698   -2.5788   -1.1186 H         1 <0>         0.0775
     32 H8          2.2541   -2.5175    1.6391 H         1 <0>         0.0779
     33 H9          1.7687   -4.0191    0.8368 H         1 <0>         0.1000
     34 H10         5.8951   -0.8907    0.0977 H         1 <0>         0.4065
     35 H11         5.6720   -4.6073   -1.3581 H         1 <0>         0.1117
     36 H12         6.4314   -3.3539   -0.3478 H         1 <0>         0.1404
     37 H13         8.2997   -5.1006   -1.2681 H         1 <0>         0.4153
     38 H14         7.5768   -7.7855    0.8932 H         1 <0>         0.1500
     39 H15         9.2373   -9.3277    1.8525 H         1 <0>         0.1352
     40 H16        11.6407   -8.8567    1.6151 H         1 <0>         0.1358
     41 H17        12.3928   -6.8425    0.4176 H         1 <0>         0.1406
@<TRIPOS>BOND
     1    1    6 ar
     2    1    2 ar
     3    1   26 1
     4    2    3 ar
     5    2   27 1
     6    3    4 ar
     7    3   28 1
     8    4   12 1
     9    4    5 ar
    10    5    6 ar
    11    5    7 1
    12    6   29 1
    13    7    8 1
    14    7   30 1
    15    7   31 1
    16    8    9 1
    17    8   32 1
    18    8   33 1
    19    9   10 1
    20    9   11 1
    21    9   14 1
    22   11   12 2
    23   11   13 1
    24   13   34 1
    25   14   15 1
    26   15   16 1
    27   15   35 1
    28   15   36 1
    29   16   17 2
    30   16   18 am
    31   18   19 1
    32   18   37 1
    33   19   24 ar
    34   19   20 ar
    35   20   21 ar
    36   20   38 1
    37   21   22 ar
    38   21   39 1
    39   22   23 ar
    40   22   40 1
    41   23   24 ar
    42   23   41 1
    43   24   25 1
@<TRIPOS>MOLECULE
ZINC66641410
   57    58     0     0     0
SMALL
USER_CHARGES

@<TRIPOS>ATOM
      1 C1         -0.0187    1.5241    0.0104 C.3       1 <0>        -0.1460
      2 C2          0.0021   -0.0041    0.0020 C.3       1 <0>        -0.0822
      3 H1         -1.0586   -0.3361    0.0104 H         1 <0>         0.0569
      4 C3          0.6204   -0.5248   -1.2876 C.3       1 <0>        -0.1119
      5 C4          2.1368   -0.3398   -1.2744 C.3       1 <0>        -0.0671
      6 H2          2.3879    0.7138   -1.1844 H         1 <0>         0.0817
      7 C5          2.7211   -1.1305   -0.1059 C.3       1 <0>        -0.1019
      8 C6          2.1784   -0.6148    1.2223 C.3       1 <0>        -0.0552
      9 C7          0.6609   -0.5627    1.2469 C.3       1 <0>        -0.0992
     10 C8          2.6406   -1.5879    2.3285 C.3       1 <0>        -0.1469
     11 C9          2.7807    0.7571    1.5378 C.3       1 <0>        -0.1454
     12 C10         2.7196   -0.8775   -2.5870 C.3       1 <0>        -0.1408
     13 C11         2.2217   -0.0413   -3.7376 C.2       1 <0>         0.5126
     14 O1          1.4752    0.8919   -3.5306 O.2       1 <0>        -0.5290
     15 N1          2.6060   -0.3305   -4.9966 N.am      1 <0>        -0.7321
     16 C12         2.1219    0.4825   -6.1151 C.3       1 <0>         0.1430
     17 C13         0.7561   -0.0364   -6.5692 C.3       1 <0>        -0.1279
     18 C14         0.2506    0.8125   -7.7374 C.3       1 <0>        -0.0967
     19 C15         1.2421    0.7233   -8.8992 C.3       1 <0>        -0.1077
     20 C16         2.6079    1.2423   -8.4452 C.3       1 <0>        -0.1062
     21 C17         3.1134    0.3933   -7.2770 C.3       1 <0>        -0.1243
     22 C18         0.7442    1.5596  -10.0498 C.2       1 <0>         0.5142
     23 O2         -0.3008    2.1671   -9.9503 O.2       1 <0>        -0.5343
     24 N2          1.4601    1.6323  -11.1894 N.am      1 <0>        -0.7370
     25 C19         0.9761    2.4453  -12.3079 C.3       1 <0>         0.0849
     26 H3          1.0039    1.9014    0.0027 H         1 <0>         0.0578
     27 H4         -0.5458    1.8852   -0.8726 H         1 <0>         0.0546
     28 H5         -0.5288    1.8756    0.9072 H         1 <0>         0.0485
     29 H6          0.3885   -1.5869   -1.4025 H         1 <0>         0.0512
     30 H7          0.2000    0.0164   -2.1396 H         1 <0>         0.0819
     31 H8          2.4619   -2.1863   -0.2192 H         1 <0>         0.0611
     32 H9          3.8100   -1.0360   -0.1151 H         1 <0>         0.0605
     33 H10         0.3441    0.0366    2.1159 H         1 <0>         0.0581
     34 H11         0.2783   -1.5814    1.4235 H         1 <0>         0.0547
     35 H12         3.7299   -1.6209    2.3514 H         1 <0>         0.0537
     36 H13         2.2671   -1.2451    3.2934 H         1 <0>         0.0534
     37 H14         2.2512   -2.5847    2.1215 H         1 <0>         0.0526
     38 H15         2.5186    1.4596    0.7467 H         1 <0>         0.0608
     39 H16         2.3868    1.1169    2.4884 H         1 <0>         0.0530
     40 H17         3.8653    0.6714    1.6030 H         1 <0>         0.0523
     41 H18         3.8079   -0.8302   -2.5476 H         1 <0>         0.0918
     42 H19         2.4058   -1.9119   -2.7271 H         1 <0>         0.0917
     43 H20         3.2030   -1.0768   -5.1622 H         1 <0>         0.3989
     44 H21         2.0285    1.5205   -5.7961 H         1 <0>         0.0896
     45 H22         0.8496   -1.0745   -6.8882 H         1 <0>         0.0643
     46 H23         0.0498    0.0271   -5.7415 H         1 <0>         0.0728
     47 H24        -0.7224    0.4429   -8.0608 H         1 <0>         0.0738
     48 H25         0.1572    1.8506   -7.4183 H         1 <0>         0.0734
     49 H26         1.3355   -0.3147   -9.2182 H         1 <0>         0.0991
     50 H27         3.3142    1.1787   -9.2729 H         1 <0>         0.0727
     51 H28         2.5144    2.2803   -8.1261 H         1 <0>         0.0730
     52 H29         4.0864    0.7630   -6.9535 H         1 <0>         0.0744
     53 H30         3.2068   -0.6448   -7.5960 H         1 <0>         0.0716
     54 H31         2.2958    1.1465  -11.2689 H         1 <0>         0.4015
     55 H32         0.0030    2.0756  -12.6314 H         1 <0>         0.0600
     56 H33         0.8826    3.4833  -11.9889 H         1 <0>         0.0601
     57 H34         1.6824    2.3817  -13.1356 H         1 <0>         0.0757
@<TRIPOS>BOND
     1    1    2 1
     2    1   26 1
     3    1   27 1
     4    1   28 1
     5    2    3 1
     6    2    9 1
     7    2    4 1
     8    4    5 1
     9    4   29 1
    10    4   30 1
    11    5    6 1
    12    5    7 1
    13    5   12 1
    14    7    8 1
    15    7   31 1
    16    7   32 1
    17    8    9 1
    18    8   10 1
    19    8   11 1
    20    9   33 1
    21    9   34 1
    22   10   35 1
    23   10   36 1
    24   10   37 1
    25   11   38 1
    26   11   39 1
    27   11   40 1
    28   12   13 1
    29   12   41 1
    30   12   42 1
    31   13   14 2
    32   13   15 am
    33   15   16 1
    34   15   43 1
    35   16   21 1
    36   16   17 1
    37   16   44 1
    38   17   18 1
    39   17   45 1
    40   17   46 1
    41   18   19 1
    42   18   47 1
    43   18   48 1
    44   19   20 1
    45   19   22 1
    46   19   49 1
    47   20   21 1
    48   20   50 1
    49   20   51 1
    50   21   52 1
    51   21   53 1
    52   22   23 2
    53   22   24 am
    54   24   25 1
    55   24   54 1
    56   25   55 1
    57   25   56 1
    58   25   57 1
@<TRIPOS>MOLECULE
ZINC20435154
   36    37     0     0     0
SMALL
USER_CHARGES
[3-fluoro-4-[(1S,2R)-2-methylcyclohexoxy]phenyl]methanol
@<TRIPOS>ATOM
      1 C1         -4.4316    0.6846   -0.1171 C.3       1 <0>        -0.1520
      2 C2         -3.1048    1.4379   -0.0019 C.3       1 <0>        -0.0826
      3 H1         -3.2980    2.5207    0.0139 H         1 <0>         0.0889
      4 C3         -2.2182    1.0955   -1.2009 C.3       1 <0>        -0.1154
      5 C4         -0.8914    1.8487   -1.0856 C.3       1 <0>        -0.1209
      6 C5         -0.1825    1.4383    0.2066 C.3       1 <0>        -0.1171
      7 C6         -1.0692    1.7807    1.4056 C.3       1 <0>        -0.1464
      8 C7         -2.3959    1.0274    1.2903 C.3       1 <0>         0.0889
      9 H2         -3.0334    1.2055    2.1688 H         1 <0>         0.0749
     10 O1         -2.1448   -0.3792    1.2698 O.3       1 <0>        -0.2962
     11 C8         -2.0194   -1.0014    2.4721 C.ar      1 <0>         0.1117
     12 C9         -2.0214   -0.2579    3.6425 C.ar      1 <0>        -0.1899
     13 C10        -1.8995   -0.8928    4.8638 C.ar      1 <0>        -0.0665
     14 C11        -1.7641   -2.2677    4.9200 C.ar      1 <0>        -0.1055
     15 C12        -1.7559   -3.0123    3.7551 C.ar      1 <0>        -0.0948
     16 C13        -1.8833   -2.3826    2.5300 C.ar      1 <0>         0.0632
     17 F1         -1.8758   -3.1099    1.3915 F         1 <0>        -0.1312
     18 C14        -1.6247   -2.9558    6.2534 C.3       1 <0>         0.1294
     19 O2         -0.2416   -3.0440    6.6017 O.3       1 <0>        -0.5973
     20 H3         -4.9413    0.9797   -1.0461 H         1 <0>         0.0599
     21 H4         -5.0690    0.9307    0.7450 H         1 <0>         0.0536
     22 H5         -4.2383   -0.3982   -0.1329 H         1 <0>         0.0635
     23 H6         -2.0250    0.0127   -1.2167 H         1 <0>         0.0722
     24 H7         -2.7279    1.3906   -2.1300 H         1 <0>         0.0651
     25 H8         -0.2539    1.6025   -1.9476 H         1 <0>         0.0647
     26 H9         -1.0846    2.9315   -1.0698 H         1 <0>         0.0615
     27 H10         0.0108    0.3555    0.1908 H         1 <0>         0.0685
     28 H11         0.7714    1.9798    0.2894 H         1 <0>         0.0640
     29 H12        -0.5595    1.4856    2.3347 H         1 <0>         0.0702
     30 H13        -1.2625    2.8635    1.4214 H         1 <0>         0.0801
     31 H14        -2.1222    0.8165    3.5999 H         1 <0>         0.1413
     32 H15        -1.9056   -0.3139    5.7755 H         1 <0>         0.1324
     33 H16        -1.6496   -4.0860    3.8016 H         1 <0>         0.1420
     34 H17        -2.1602   -2.3786    7.0216 H         1 <0>         0.0544
     35 H18        -2.0522   -3.9674    6.1905 H         1 <0>         0.0533
     36 H19         0.0582   -3.5185    7.5477 H         1 <0>         0.4123
@<TRIPOS>BOND
     1    1    2 1
     2    1   20 1
     3    1   21 1
     4    1   22 1
     5    2    3 1
     6    2    8 1
     7    2    4 1
     8    4    5 1
     9    4   23 1
    10    4   24 1
    11    5    6 1
    12    5   25 1
    13    5   26 1
    14    6    7 1
    15    6   27 1
    16    6   28 1
    17    7    8 1
    18    7   29 1
    19    7   30 1
    20    8    9 1
    21    8   10 1
    22   10   11 1
    23   11   16 ar
    24   11   12 ar
    25   12   13 ar
    26   12   31 1
    27   13   14 ar
    28   13   32 1
    29   14   15 ar
    30   14   18 1
    31   15   16 ar
    32   15   33 1
    33   16   17 1
    34   18   19 1
    35   18   34 1
    36   18   35 1
    37   19   36 1
@<TRIPOS>MOLECULE
ZINC37468655
   31    32     0     0     0
SMALL
USER_CHARGES

@<TRIPOS>ATOM
      1 C1         -0.0187    1.5258    0.0104 C.3       1 <0>        -0.1689
      2 C2          0.0021   -0.0041    0.0020 C.3       1 <0>         0.1818
      3 H1          0.5293   -0.3651    0.8851 H         1 <0>         0.0857
      4 C3          0.7182   -0.4975   -1.2568 C.3       1 <0>        -0.1417
      5 C4          1.8441   -1.5175   -1.0751 C.3       1 <0>        -0.1707
      6 C5          2.1747   -0.0723   -1.4535 C.3       1 <0>        -0.1642
      7 C6         -0.1556   -0.6242   -2.5063 C.3       1 <0>        -0.1196
      8 N1         -1.3723   -0.5112    0.0124 N.pl3     1 <0>        -0.7248
      9 C7         -2.0501   -0.6599    1.2190 C.ar      1 <0>         0.2631
     10 C8         -1.4222   -0.3209    2.4145 C.ar      1 <0>        -0.2009
     11 C9         -2.0885   -0.4664    3.6097 C.ar      1 <0>        -0.0053
     12 C10        -3.3985   -0.9555    3.6233 C.ar      1 <0>        -0.0887
     13 C11        -4.0271   -1.2954    2.4203 C.ar      1 <0>         0.0594
     14 C12        -3.3550   -1.1415    1.2268 C.ar      1 <0>        -0.1940
     15 Cl1        -5.6530   -1.9038    2.4304 Cl        1 <0>        -0.0505
     16 C13        -4.0947   -1.1086    4.8652 C.1       1 <0>         0.2554
     17 N2         -4.6471   -1.2301    5.8505 N.1       1 <0>        -0.4140
     18 H2          1.0039    1.9031    0.0027 H         1 <0>         0.0687
     19 H3         -0.5459    1.8868   -0.8726 H         1 <0>         0.0620
     20 H4         -0.5289    1.8773    0.9072 H         1 <0>         0.0629
     21 H5          2.0746   -1.8370   -0.0588 H         1 <0>         0.0963
     22 H6          1.9623   -2.2791   -1.8458 H         1 <0>         0.0966
     23 H7          2.5105    0.1167   -2.4731 H         1 <0>         0.0985
     24 H8          2.6228    0.5589   -0.6861 H         1 <0>         0.0979
     25 H9         -0.5774    0.3497   -2.7550 H         1 <0>         0.0642
     26 H10         0.4506   -0.9809   -3.3390 H         1 <0>         0.0640
     27 H11        -0.9626   -1.3315   -2.3151 H         1 <0>         0.0603
     28 H12        -1.8100   -0.7432   -0.8215 H         1 <0>         0.4053
     29 H13        -0.4103    0.0565    2.4039 H         1 <0>         0.1382
     30 H14        -1.6001   -0.2034    4.5363 H         1 <0>         0.1415
     31 H15        -3.8405   -1.3993    0.2971 H         1 <0>         0.1412
@<TRIPOS>BOND
     1    1    2 1
     2    1   18 1
     3    1   19 1
     4    1   20 1
     5    2    3 1
     6    2    4 1
     7    2    8 1
     8    4    6 1
     9    4    5 1
    10    4    7 1
    11    5    6 1
    12    5   21 1
    13    5   22 1
    14    6   23 1
    15    6   24 1
    16    7   25 1
    17    7   26 1
    18    7   27 1
    19    8    9 1
    20    8   28 1
    21    9   14 ar
    22    9   10 ar
    23   10   11 ar
    24   10   29 1
    25   11   12 ar
    26   11   30 1
    27   12   13 ar
    28   12   16 1
    29   13   14 ar
    30   13   15 1
    31   14   31 1
    32   16   17 3
@<TRIPOS>MOLECULE
ZINC50267467
   32    33     0     0     0
SMALL
USER_CHARGES

@<TRIPOS>ATOM
      1 C1         -0.0184    1.5028    0.0103 C.3       1 <0>        -0.1061
      2 C2          0.0021   -0.0041    0.0020 C.ar      1 <0>        -0.1500
      3 C3          0.0058   -0.6888   -1.1976 C.ar      1 <0>        -0.0624
      4 C4          0.0250   -2.0722   -1.2060 C.ar      1 <0>        -0.0891
      5 C5          0.0401   -2.7739   -0.0131 C.ar      1 <0>        -0.0649
      6 C6          0.0360   -2.0946    1.1891 C.ar      1 <0>        -0.1854
      7 C7          0.0230   -0.7055    1.2004 C.ar      1 <0>         0.2226
      8 N1          0.0251   -0.0153    2.4155 N.pl3     1 <0>        -0.7395
      9 C8          0.0471   -0.7566    3.6790 C.3       1 <0>         0.1318
     10 C9          0.0448    0.2294    4.8489 C.3       1 <0>         0.0778
     11 H1         -0.8528    0.8464    4.8077 H         1 <0>         0.0782
     12 C10         0.0826   -0.5415    6.1757 C.3       1 <0>        -0.1527
     13 C11         0.0261    0.4754    7.3208 C.3       1 <0>        -0.0825
     14 C12         1.0039    1.5868    7.0522 C.2       1 <0>        -0.2794
     15 C13         1.5070    1.8079    5.8665 C.2       1 <0>         0.0524
     16 O1          1.2059    1.0619    4.7804 O.3       1 <0>        -0.3184
     17 Cl1         0.0297   -2.9295   -2.7155 Cl        1 <0>        -0.0798
     18 H2          1.0042    1.8801    0.0026 H         1 <0>         0.0699
     19 H3         -0.5455    1.8639   -0.8728 H         1 <0>         0.0702
     20 H4         -0.5286    1.8543    0.9071 H         1 <0>         0.0603
     21 H5         -0.0067   -0.1438   -2.1299 H         1 <0>         0.1317
     22 H6          0.0548   -3.8537   -0.0225 H         1 <0>         0.1312
     23 H7          0.0475   -2.6426    2.1196 H         1 <0>         0.1289
     24 H8          0.0119    0.9546    2.4224 H         1 <0>         0.4052
     25 H9         -0.8337   -1.3957    3.7407 H         1 <0>         0.0811
     26 H10         0.9461   -1.3714    3.7238 H         1 <0>         0.0721
     27 H11        -0.7749   -1.2118    6.2363 H         1 <0>         0.0845
     28 H12         1.0057   -1.1175    6.2404 H         1 <0>         0.0798
     29 H13        -0.9808    0.8867    7.3923 H         1 <0>         0.0719
     30 H14         0.2848   -0.0176    8.2578 H         1 <0>         0.0797
     31 H15         1.3010    2.2263    7.8701 H         1 <0>         0.1223
     32 H16         2.1983    2.6291    5.7482 H         1 <0>         0.1584
@<TRIPOS>BOND
     1    1    2 1
     2    1   18 1
     3    1   19 1
     4    1   20 1
     5    2    7 ar
     6    2    3 ar
     7    3    4 ar
     8    3   21 1
     9    4    5 ar
    10    4   17 1
    11    5    6 ar
    12    5   22 1
    13    6    7 ar
    14    6   23 1
    15    7    8 1
    16    8    9 1
    17    8   24 1
    18    9   10 1
    19    9   25 1
    20    9   26 1
    21   10   11 1
    22   10   16 1
    23   10   12 1
    24   12   13 1
    25   12   27 1
    26   12   28 1
    27   13   14 1
    28   13   29 1
    29   13   30 1
    30   14   15 2
    31   14   31 1
    32   15   16 1
    33   15   32 1
@<TRIPOS>MOLECULE
ZINC51755130
   34    35     0     0     0
SMALL
USER_CHARGES

@<TRIPOS>ATOM
      1 C1         -0.0187    1.5258    0.0104 C.3       1 <0>        -0.1643
      2 C2          0.0021   -0.0041    0.0020 C.3       1 <0>         0.1010
      3 C3          0.8316   -0.5344   -1.1913 C.3       1 <0>        -0.1007
      4 C4          2.2038   -0.7039   -0.5684 C.ar      1 <0>        -0.1759
      5 C5          3.4546   -0.8748   -1.1192 C.ar      1 <0>        -0.0441
      6 C6          4.5606   -0.9996   -0.2974 C.ar      1 <0>        -0.1269
      7 C7          4.4045   -0.9520    1.0758 C.ar      1 <0>        -0.0446
      8 C8          3.1524   -0.7845    1.6295 C.ar      1 <0>        -0.1414
      9 C9          2.0334   -0.6616    0.8093 C.ar      1 <0>         0.1240
     10 O1          0.7214   -0.5100    1.1394 O.3       1 <0>        -0.2948
     11 C10         5.9306   -1.1872   -0.8967 C.3       1 <0>         0.1029
     12 H1          5.8330   -1.5500   -1.9199 H         1 <0>         0.1289
     13 C11         6.6739    0.1501   -0.8985 C.3       1 <0>         0.4177
     14 F1          6.7991    0.6159    0.4148 F         1 <0>        -0.1793
     15 F2          7.9457   -0.0240   -1.4548 F         1 <0>        -0.1833
     16 F3          5.9566    1.0814   -1.6571 F         1 <0>        -0.1777
     17 N1          6.6838   -2.1650   -0.1001 N.3       1 <0>        -0.6663
     18 C12         7.7227   -2.8153   -0.9099 C.3       1 <0>         0.0091
     19 C13        -1.4217   -0.5632   -0.0314 C.3       1 <0>        -0.1429
     20 H2          1.0039    1.9031    0.0027 H         1 <0>         0.0631
     21 H3         -0.5459    1.8868   -0.8726 H         1 <0>         0.0768
     22 H4         -0.5289    1.8773    0.9072 H         1 <0>         0.0701
     23 H5          0.4423   -1.4901   -1.5422 H         1 <0>         0.0934
     24 H6          0.8589    0.1945   -2.0013 H         1 <0>         0.0934
     25 H7          3.5719   -0.9118   -2.1921 H         1 <0>         0.1273
     26 H8          5.2676   -1.0469    1.7181 H         1 <0>         0.1331
     27 H9          3.0392   -0.7488    2.7030 H         1 <0>         0.1324
     28 H10         7.0823   -1.7331    0.7201 H         1 <0>         0.3526
     29 H11         7.2582   -3.3322   -1.7497 H         1 <0>         0.0740
     30 H12         8.4155   -2.0621   -1.2850 H         1 <0>         0.0422
     31 H13         8.2650   -3.5342   -0.2958 H         1 <0>         0.0810
     32 H14        -1.9246   -0.2227   -0.9365 H         1 <0>         0.0803
     33 H15        -1.3845   -1.6526   -0.0244 H         1 <0>         0.0682
     34 H16        -1.9703   -0.2127    0.8428 H         1 <0>         0.0705
@<TRIPOS>BOND
     1    1    2 1
     2    1   20 1
     3    1   21 1
     4    1   22 1
     5    2   10 1
     6    2    3 1
     7    2   19 1
     8    3    4 1
     9    3   23 1
    10    3   24 1
    11    4    9 ar
    12    4    5 ar
    13    5    6 ar
    14    5   25 1
    15    6    7 ar
    16    6   11 1
    17    7    8 ar
    18    7   26 1
    19    8    9 ar
    20    8   27 1
    21    9   10 1
    22   11   12 1
    23   11   13 1
    24   11   17 1
    25   13   14 1
    26   13   15 1
    27   13   16 1
    28   17   18 1
    29   17   28 1
    30   18   29 1
    31   18   30 1
    32   18   31 1
    33   19   32 1
    34   19   33 1
    35   19   34 1
@<TRIPOS>MOLECULE
ZINC65355944
   29    30     0     0     0
SMALL
USER_CHARGES

@<TRIPOS>ATOM
      1 C1         -0.0187    1.5258    0.0104 C.3       1 <0>        -0.1399
      2 C2          0.0021   -0.0041    0.0020 C.3       1 <0>        -0.1129
      3 S1          0.8794   -0.6050    1.4716 S.3       1 <0>        -0.1067
      4 C3          0.8178   -2.3591    1.3173 C.ar      1 <0>        -0.0744
      5 C4          0.1873   -2.9383    0.2209 C.ar      1 <0>        -0.1239
      6 C5          0.1381   -4.3099    0.0984 C.ar      1 <0>        -0.0744
      7 C6          0.7214   -5.1176    1.0744 C.ar      1 <0>        -0.0550
      8 C7          1.3535   -4.5351    2.1727 C.ar      1 <0>        -0.1032
      9 C8          1.4048   -3.1630    2.2891 C.ar      1 <0>        -0.0874
     10 C9          0.6691   -6.5934    0.9447 C.ar      1 <0>         0.0461
     11 C10         0.0399   -7.1675   -0.1590 C.ar      1 <0>        -0.0726
     12 C11        -0.0019   -8.5452   -0.2688 C.ar      1 <0>        -0.1472
     13 C12         0.5900   -9.3094    0.7338 C.ar      1 <0>         0.2593
     14 C13         1.1988   -8.6700    1.8041 C.ar      1 <0>        -0.0332
     15 N1          1.2264   -7.3548    1.8775 N.ar      1 <0>        -0.3837
     16 O1          0.5710  -10.6667    0.6648 O.3       1 <0>        -0.6264
     17 H1          1.0039    1.9031    0.0027 H         1 <0>         0.0679
     18 H2         -0.5459    1.8868   -0.8726 H         1 <0>         0.0786
     19 H3         -0.5289    1.8773    0.9072 H         1 <0>         0.0679
     20 H4         -1.0205   -0.3814    0.0098 H         1 <0>         0.0903
     21 H5          0.5123   -0.3556   -0.8948 H         1 <0>         0.0902
     22 H6         -0.2643   -2.3124   -0.5347 H         1 <0>         0.1322
     23 H7         -0.3522   -4.7591   -0.7527 H         1 <0>         0.1378
     24 H8          1.8058   -5.1589    2.9294 H         1 <0>         0.1232
     25 H9          1.8978   -2.7114    3.1373 H         1 <0>         0.1363
     26 H10        -0.4094   -6.5443   -0.9181 H         1 <0>         0.1549
     27 H11        -0.4828   -9.0178   -1.1125 H         1 <0>         0.1488
     28 H12         1.6594   -9.2575    2.5845 H         1 <0>         0.1832
     29 H13         1.6618   -6.9326    2.6345 H         1 <0>         0.4240
@<TRIPOS>BOND
     1    1    2 1
     2    1   17 1
     3    1   18 1
     4    1   19 1
     5    2    3 1
     6    2   20 1
     7    2   21 1
     8    3    4 1
     9    4    9 ar
    10    4    5 ar
    11    5    6 ar
    12    5   22 1
    13    6    7 ar
    14    6   23 1
    15    7    8 ar
    16    7   10 1
    17    8    9 ar
    18    8   24 1
    19    9   25 1
    20   10   15 ar
    21   10   11 ar
    22   11   26 1
    23   11   12 ar
    24   12   13 ar
    25   12   27 1
    26   13   16 1
    27   13   14 ar
    28   14   28 1
    29   14   15 ar
    30   15   29 1
@<TRIPOS>MOLECULE
ZINC37946906
   32    33     0     0     0
SMALL
USER_CHARGES

@<TRIPOS>ATOM
      1 C1         -0.0183    1.4964    0.0103 C.3       1 <0>        -0.0894
      2 C2          1.4110    2.0430   -0.0004 C.3       1 <0>        -0.1215
      3 C3          2.2126    1.3265    1.0936 C.3       1 <0>        -0.0700
      4 H1          1.6796    1.3939    2.0420 H         1 <0>         0.0823
      5 C4          2.3695   -0.1426    0.6951 C.3       1 <0>        -0.0724
      6 C5          1.0394   -0.7170    0.3041 C.2       1 <0>        -0.1540
      7 C6          0.0021   -0.0041    0.0020 C.2       1 <0>        -0.1609
      8 C7          3.5907    1.9768    1.2308 C.3       1 <0>         0.1879
      9 H2          4.1241    1.9012    0.2832 H         1 <0>         0.1208
     10 C8          3.4305    3.3948    1.5919 C.1       1 <0>         0.1691
     11 N1          3.3068    4.4891    1.8705 N.1       1 <0>        -0.4178
     12 N2          4.3551    1.2879    2.2792 N.3       1 <0>        -0.6613
     13 C9          5.8001    1.4409    2.0639 C.3       1 <0>         0.0823
     14 C10         6.5610    0.7117    3.1730 C.3       1 <0>        -0.1540
     15 C11         7.4282    1.5569    4.1082 C.3       1 <0>        -0.1852
     16 C12         8.0860    0.6536    3.0632 C.3       1 <0>        -0.1733
     17 H3         -0.5320    1.8459    0.9058 H         1 <0>         0.0728
     18 H4         -0.5490    1.8554   -0.8715 H         1 <0>         0.0732
     19 H5          1.8679    1.8550   -0.9720 H         1 <0>         0.0718
     20 H6          1.3950    3.1144    0.1992 H         1 <0>         0.0623
     21 H7          3.0569   -0.2169   -0.1476 H         1 <0>         0.0752
     22 H8          2.7721   -0.7045    1.5378 H         1 <0>         0.0878
     23 H9          0.9415   -1.7921    0.2729 H         1 <0>         0.1042
     24 H10        -0.9053   -0.5213   -0.2727 H         1 <0>         0.1017
     25 H11         4.0892    1.6163    3.1955 H         1 <0>         0.3524
     26 H12         6.0705    1.0154    1.0975 H         1 <0>         0.0855
     27 H13         6.0599    2.4993    2.0803 H         1 <0>         0.0352
     28 H14         6.0539   -0.1531    3.6009 H         1 <0>         0.1165
     29 H15         7.4566    2.6324    3.9333 H         1 <0>         0.0916
     30 H16         7.4916    1.2483    5.1517 H         1 <0>         0.0954
     31 H17         8.5822   -0.2493    3.4191 H         1 <0>         0.0974
     32 H18         8.5471    1.1348    2.2007 H         1 <0>         0.0944
@<TRIPOS>BOND
     1    1    7 1
     2    1    2 1
     3    1   17 1
     4    1   18 1
     5    2    3 1
     6    2   19 1
     7    2   20 1
     8    3    4 1
     9    3    5 1
    10    3    8 1
    11    5    6 1
    12    5   21 1
    13    5   22 1
    14    6    7 2
    15    6   23 1
    16    7   24 1
    17    8    9 1
    18    8   10 1
    19    8   12 1
    20   10   11 3
    21   12   13 1
    22   12   25 1
    23   13   14 1
    24   13   26 1
    25   13   27 1
    26   14   16 1
    27   14   15 1
    28   14   28 1
    29   15   16 1
    30   15   29 1
    31   15   30 1
    32   16   31 1
    33   16   32 1
@<TRIPOS>MOLECULE
ZINC45135441
   31    31     0     0     0
SMALL
USER_CHARGES

@<TRIPOS>ATOM
      1 C1         -0.0187    1.5258    0.0104 C.3       1 <0>        -0.1167
      2 C2          0.0021   -0.0041    0.0020 C.3       1 <0>        -0.1362
      3 C3         -0.8252   -0.7277    1.0664 C.3       1 <0>        -0.1843
      4 C4          0.7014   -0.7075    1.1670 C.3       1 <0>         0.0843
      5 H1          1.1466   -0.0804    1.9393 H         1 <0>         0.1370
      6 N1          1.4150   -1.9531    0.8748 N.am      1 <0>        -0.7035
      7 C5          2.4311   -2.3493    1.6667 C.2       1 <0>         0.5156
      8 O1          2.7546   -1.6746    2.6212 O.2       1 <0>        -0.5366
      9 C6          3.1652   -3.6306    1.3662 C.3       1 <0>        -0.1394
     10 C7          4.2637   -3.8457    2.4092 C.3       1 <0>        -0.1051
     11 C8          5.0090   -5.1466    2.1041 C.3       1 <0>        -0.1309
     12 C9          6.1075   -5.3617    3.1472 C.3       1 <0>        -0.0331
     13 Cl1         6.9858   -6.8947    2.7876 Cl        1 <0>        -0.1876
     14 C10         0.1021   -0.6551   -1.3790 C.3       1 <0>        -0.1193
     15 H2          1.0039    1.9031    0.0027 H         1 <0>         0.0617
     16 H3         -0.5459    1.8868   -0.8726 H         1 <0>         0.0642
     17 H4         -0.5289    1.8773    0.9072 H         1 <0>         0.0602
     18 H5         -1.3842   -0.1138    1.7726 H         1 <0>         0.1031
     19 H6         -1.2985   -1.6677    0.7829 H         1 <0>         0.0972
     20 H7          1.1562   -2.4928    0.1115 H         1 <0>         0.4019
     21 H8          2.4658   -4.4660    1.3976 H         1 <0>         0.0966
     22 H9          3.6130   -3.5688    0.3744 H         1 <0>         0.0967
     23 H10         4.9631   -3.0103    2.3778 H         1 <0>         0.0747
     24 H11         3.8159   -3.9076    3.4011 H         1 <0>         0.0747
     25 H12         4.3096   -5.9820    2.1355 H         1 <0>         0.0764
     26 H13         5.4568   -5.0848    1.1123 H         1 <0>         0.0764
     27 H14         6.8069   -4.5263    3.1158 H         1 <0>         0.0939
     28 H15         5.6597   -5.4236    4.1390 H         1 <0>         0.0939
     29 H16         1.1494   -0.7246   -1.6729 H         1 <0>         0.0615
     30 H17        -0.3320   -1.6542   -1.3419 H         1 <0>         0.0563
     31 H18        -0.4399   -0.0502   -2.1059 H         1 <0>         0.0664
@<TRIPOS>BOND
     1    1    2 1
     2    1   15 1
     3    1   16 1
     4    1   17 1
     5    2    4 1
     6    2    3 1
     7    2   14 1
     8    3    4 1
     9    3   18 1
    10    3   19 1
    11    4    5 1
    12    4    6 1
    13    6    7 am
    14    6   20 1
    15    7    8 2
    16    7    9 1
    17    9   10 1
    18    9   21 1
    19    9   22 1
    20   10   11 1
    21   10   23 1
    22   10   24 1
    23   11   12 1
    24   11   25 1
    25   11   26 1
    26   12   13 1
    27   12   27 1
    28   12   28 1
    29   14   29 1
    30   14   30 1
    31   14   31 1
@<TRIPOS>MOLECULE
ZINC50981383
   30    29     0     0     0
SMALL
USER_CHARGES

@<TRIPOS>ATOM
      1 C1         -0.0187    1.5258    0.0104 C.3       1 <0>        -0.1472
      2 C2          0.0021   -0.0041    0.0020 C.3       1 <0>        -0.1012
      3 C3          0.7421   -0.5109    1.2415 C.3       1 <0>        -0.1529
      4 C4         -1.4333   -0.5336    0.0129 C.3       1 <0>        -0.1094
      5 C5         -1.4157   -2.0577   -0.1212 C.3       1 <0>        -0.0264
      6 H1         -0.7891   -2.4841    0.6622 H         1 <0>         0.1164
      7 C6         -2.8192   -2.5900    0.0125 C.2       1 <0>         0.5124
      8 O1         -3.7316   -2.0488   -0.5753 O.2       1 <0>        -0.5159
      9 N1         -3.0604   -3.6675    0.7854 N.am      1 <0>        -0.7203
     10 C7         -4.4248   -4.1850    0.9154 C.3       1 <0>         0.1345
     11 C8         -4.3744   -5.6701    1.2797 C.3       1 <0>        -0.1620
     12 C9         -5.1597   -3.4149    2.0144 C.3       1 <0>        -0.1649
     13 Cl1        -0.7521   -2.5113   -1.7351 Cl        1 <0>        -0.1368
     14 H2          1.0039    1.9031    0.0027 H         1 <0>         0.0584
     15 H3         -0.5459    1.8868   -0.8726 H         1 <0>         0.0574
     16 H4         -0.5289    1.8773    0.9072 H         1 <0>         0.0552
     17 H5          0.5123   -0.3556   -0.8948 H         1 <0>         0.0813
     18 H6          0.2319   -0.1594    2.1383 H         1 <0>         0.0563
     19 H7          0.7568   -1.6008    1.2356 H         1 <0>         0.0533
     20 H8          1.7647   -0.1336    1.2338 H         1 <0>         0.0600
     21 H9         -1.9156   -0.2570    0.9504 H         1 <0>         0.0828
     22 H10        -1.9862   -0.1019   -0.8214 H         1 <0>         0.0892
     23 H11        -2.3307   -4.1003    1.2555 H         1 <0>         0.4015
     24 H12        -4.9522   -4.0605   -0.0303 H         1 <0>         0.0903
     25 H13        -3.8469   -5.7945    2.2255 H         1 <0>         0.0621
     26 H14        -5.3895   -6.0551    1.3765 H         1 <0>         0.0756
     27 H15        -3.8508   -6.2187    0.4968 H         1 <0>         0.0633
     28 H16        -5.1956   -2.3569    1.7549 H         1 <0>         0.0606
     29 H17        -6.1749   -3.7999    2.1111 H         1 <0>         0.0686
     30 H18        -4.6323   -3.5393    2.9601 H         1 <0>         0.0577
@<TRIPOS>BOND
     1    1    2 1
     2    1   14 1
     3    1   15 1
     4    1   16 1
     5    2    3 1
     6    2    4 1
     7    2   17 1
     8    3   18 1
     9    3   19 1
    10    3   20 1
    11    4    5 1
    12    4   21 1
    13    4   22 1
    14    5    6 1
    15    5    7 1
    16    5   13 1
    17    7    8 2
    18    7    9 am
    19    9   10 1
    20    9   23 1
    21   10   11 1
    22   10   12 1
    23   10   24 1
    24   11   25 1
    25   11   26 1
    26   11   27 1
    27   12   28 1
    28   12   29 1
    29   12   30 1
@<TRIPOS>MOLECULE
ZINC61362604
   27    27     0     0     0
SMALL
USER_CHARGES

@<TRIPOS>ATOM
      1 C1         -0.0187    1.5258    0.0104 C.3       1 <0>        -0.1443
      2 C2          0.0021   -0.0041    0.0020 C.3       1 <0>        -0.1069
      3 C3          0.7182   -0.4975   -1.2568 C.3       1 <0>         0.1840
      4 H1          1.7103   -0.0491   -1.3098 H         1 <0>         0.1211
      5 C4          0.8443   -1.9632   -1.2069 C.1       1 <0>         0.1673
      6 N1          0.9416   -3.0944   -1.1684 N.1       1 <0>        -0.4187
      7 N2         -0.0570   -0.1128   -2.4438 N.3       1 <0>        -0.6554
      8 C5          0.8067   -0.0158   -3.6280 C.3       1 <0>         0.1356
      9 H2          1.7859    0.3621   -3.3336 H         1 <0>         0.0928
     10 C6          0.9633   -1.4003   -4.2599 C.3       1 <0>        -0.1823
     11 C7          0.1850    0.9252   -4.6275 C.2       1 <0>        -0.1104
     12 C8          0.9715    1.8089   -5.3425 C.2       1 <0>        -0.1514
     13 C9          0.3807    2.6418   -6.2338 C.2       1 <0>        -0.1716
     14 S1         -1.3389    2.1871   -6.0805 S.3       1 <0>         0.0297
     15 C10        -1.1532    0.9138   -4.8430 C.2       1 <0>        -0.1522
     16 H3          1.0039    1.9031    0.0027 H         1 <0>         0.0531
     17 H4         -0.5459    1.8868   -0.8726 H         1 <0>         0.0723
     18 H5         -0.5289    1.8773    0.9072 H         1 <0>         0.0553
     19 H6          0.5293   -0.3651    0.8851 H         1 <0>         0.0727
     20 H7         -1.0205   -0.3814    0.0098 H         1 <0>         0.0722
     21 H8         -0.8178   -0.7562   -2.6029 H         1 <0>         0.3508
     22 H9          1.4130   -2.0809   -3.5370 H         1 <0>         0.0563
     23 H10        -0.0158   -1.7782   -4.5544 H         1 <0>         0.0615
     24 H11         1.6043   -1.3283   -5.1386 H         1 <0>         0.0693
     25 H12         2.0408    1.8356   -5.1928 H         1 <0>         0.1325
     26 H13         0.8328    3.3874   -6.8710 H         1 <0>         0.1849
     27 H14        -1.9107    0.2955   -4.3842 H         1 <0>         0.1817
@<TRIPOS>BOND
     1    1    2 1
     2    1   16 1
     3    1   17 1
     4    1   18 1
     5    2    3 1
     6    2   19 1
     7    2   20 1
     8    3    4 1
     9    3    5 1
    10    3    7 1
    11    5    6 3
    12    7    8 1
    13    7   21 1
    14    8    9 1
    15    8   10 1
    16    8   11 1
    17   10   22 1
    18   10   23 1
    19   10   24 1
    20   11   15 2
    21   11   12 1
    22   12   13 2
    23   12   25 1
    24   13   14 1
    25   13   26 1
    26   14   15 1
    27   15   27 1
@<TRIPOS>MOLECULE
ZINC66773346
   35    35     0     0     0
SMALL
USER_CHARGES

@<TRIPOS>ATOM
      1 C1         -0.0187    1.5258    0.0104 C.3       1 <0>        -0.1447
      2 C2          0.0021   -0.0041    0.0020 C.3       1 <0>        -0.1050
      3 H1         -1.0141   -0.3984   -0.0029 H         1 <0>         0.0880
      4 C3          0.7931   -0.5288   -1.2219 C.3       1 <0>        -0.1220
      5 C4          1.2276   -1.9441   -0.7669 C.3       1 <0>        -0.1257
      6 C5          1.5656   -1.7736    0.7286 C.3       1 <0>        -0.1349
      7 C6          0.7834   -0.5401    1.2194 C.3       1 <0>         0.1428
      8 H2          0.0909   -0.8252    2.0114 H         1 <0>         0.0912
      9 N1          1.7131    0.4811    1.7083 N.am      1 <0>        -0.7204
     10 C7          2.1165    0.4649    2.9942 C.2       1 <0>         0.5220
     11 O1          1.7099   -0.3951    3.7465 O.2       1 <0>        -0.5379
     12 C8          3.0729    1.5153    3.4971 C.3       1 <0>        -0.0945
     13 H3          4.0017    1.4630    2.9290 H         1 <0>         0.1065
     14 C9          2.4464    2.9004    3.3237 C.3       1 <0>        -0.1467
     15 C10         3.3666    1.2703    4.9785 C.3       1 <0>        -0.0663
     16 S1          4.6290    2.4426    5.5466 S.3       1 <0>        -0.2627
     17 C11         4.8598    2.0250    7.2968 C.3       1 <0>        -0.1200
     18 H4          1.0039    1.9031    0.0027 H         1 <0>         0.0536
     19 H5         -0.5459    1.8868   -0.8726 H         1 <0>         0.0612
     20 H6         -0.5289    1.8773    0.9072 H         1 <0>         0.0589
     21 H7          0.1513   -0.5857   -2.1011 H         1 <0>         0.0703
     22 H8          1.6631    0.0982   -1.4173 H         1 <0>         0.0679
     23 H9          0.4101   -2.6537   -0.8948 H         1 <0>         0.0682
     24 H10         2.1072   -2.2701   -1.3221 H         1 <0>         0.0673
     25 H11         1.2533   -2.6572    1.2851 H         1 <0>         0.0706
     26 H12         2.6364   -1.6124    0.8533 H         1 <0>         0.0686
     27 H13         2.0383    1.1688    1.1066 H         1 <0>         0.4012
     28 H14         1.5176    2.9527    3.8918 H         1 <0>         0.0636
     29 H15         3.1382    3.6602    3.6875 H         1 <0>         0.0805
     30 H16         2.2372    3.0749    2.2683 H         1 <0>         0.0619
     31 H17         2.4540    1.4101    5.5579 H         1 <0>         0.0881
     32 H18         3.7300    0.2515    5.1132 H         1 <0>         0.0897
     33 H19         3.9158    2.1490    7.8274 H         1 <0>         0.0777
     34 H20         5.1918    0.9904    7.3827 H         1 <0>         0.0774
     35 H21         5.6105    2.6848    7.7318 H         1 <0>         0.1035
@<TRIPOS>BOND
     1    1    2 1
     2    1   18 1
     3    1   19 1
     4    1   20 1
     5    2    3 1
     6    2    7 1
     7    2    4 1
     8    4    5 1
     9    4   21 1
    10    4   22 1
    11    5    6 1
    12    5   23 1
    13    5   24 1
    14    6    7 1
    15    6   25 1
    16    6   26 1
    17    7    8 1
    18    7    9 1
    19    9   10 am
    20    9   27 1
    21   10   11 2
    22   10   12 1
    23   12   13 1
    24   12   14 1
    25   12   15 1
    26   14   28 1
    27   14   29 1
    28   14   30 1
    29   15   16 1
    30   15   31 1
    31   15   32 1
    32   16   17 1
    33   17   33 1
    34   17   34 1
    35   17   35 1
@<TRIPOS>MOLECULE
ZINC12948529
   41    43     0     0     0
SMALL
USER_CHARGES
2-cyano-N-[[4-(pyrazol-1-ylmethyl)phenyl]methyl]benzenesulfonamide
@<TRIPOS>ATOM
      1 C1         -1.2457    3.4919    0.0319 C.ar      1 <0>        -0.0635
      2 C2         -0.0549    4.1969    0.0248 C.ar      1 <0>        -0.1085
      3 C3          1.1542    3.5248    0.0100 C.ar      1 <0>        -0.0178
      4 C4          1.1802    2.1454    0.0023 C.ar      1 <0>        -0.6396
      5 C5         -0.0173    1.4278    0.0099 C.ar      1 <0>         0.0686
      6 C6         -1.2343    2.1127    0.0194 C.ar      1 <0>        -0.0865
      7 C7          0.0021   -0.0041    0.0020 C.1       1 <0>         0.2092
      8 N1          0.0175   -1.1399   -0.0042 N.1       1 <0>        -0.3531
      9 S1          2.7213    1.2913   -0.0176 S.o2      1 <0>         2.6856
     10 O1          2.6322    0.3168   -1.0479 O.2       1 <0>        -0.9413
     11 O2          3.7367    2.2852    0.0052 O.2       1 <0>        -0.9458
     12 N2          2.8395    0.4610    1.4103 N.pl3     1 <0>        -1.1082
     13 C8          1.9028   -0.6261    1.7051 C.3       1 <0>         0.1423
     14 C9          2.4301   -1.4457    2.8546 C.ar      1 <0>        -0.0897
     15 C10         3.2472   -2.5336    2.6102 C.ar      1 <0>        -0.1004
     16 C11         3.7348   -3.2825    3.6649 C.ar      1 <0>        -0.0990
     17 C12         3.3973   -2.9494    4.9634 C.ar      1 <0>        -0.1020
     18 C13         2.5757   -1.8649    5.2074 C.ar      1 <0>        -0.0828
     19 C14         2.0923   -1.1129    4.1531 C.ar      1 <0>        -0.1045
     20 C15         3.9247   -3.7689    6.1129 C.3       1 <0>         0.1742
     21 N3          2.9881   -4.8561    6.4077 N.pl3     1 <0>        -0.3708
     22 C16         3.2861   -6.1716    6.4482 C.2       1 <0>         0.0516
     23 C17         2.1519   -6.8421    6.7568 C.2       1 <0>        -0.2731
     24 C18         1.1236   -5.9050    6.9005 C.2       1 <0>         0.0434
     25 N4          1.6237   -4.7141    6.6915 N.2       1 <0>        -0.2895
     26 H1         -2.1861    4.0229    0.0430 H         1 <0>         0.1459
     27 H2         -0.0695    5.2768    0.0304 H         1 <0>         0.1450
     28 H3          2.0798    4.0812    0.0042 H         1 <0>         0.1562
     29 H4         -2.1644    1.5637    0.0208 H         1 <0>         0.1455
     30 H5          3.5289    0.6945    2.0515 H         1 <0>         0.4241
     31 H6          0.9326   -0.2073    1.9725 H         1 <0>         0.0721
     32 H7          1.7946   -1.2610    0.8258 H         1 <0>         0.1013
     33 H8          3.5075   -2.7963    1.5955 H         1 <0>         0.1283
     34 H9          4.3765   -4.1300    3.4742 H         1 <0>         0.1251
     35 H10         2.3117   -1.6048    6.2219 H         1 <0>         0.1280
     36 H11         1.4503   -0.2655    4.3437 H         1 <0>         0.1271
     37 H12         4.8949   -4.1876    5.8455 H         1 <0>         0.1059
     38 H13         4.0329   -3.1340    6.9922 H         1 <0>         0.0946
     39 H14         4.2565   -6.6105    6.2692 H         1 <0>         0.1730
     40 H15         2.0566   -7.9121    6.8678 H         1 <0>         0.1472
     41 H16         0.0946   -6.1261    7.1426 H         1 <0>         0.1821
@<TRIPOS>BOND
     1    1    6 ar
     2    1    2 ar
     3    1   26 1
     4    2    3 ar
     5    2   27 1
     6    3    4 ar
     7    3   28 1
     8    4    5 ar
     9    4    9 1
    10    5    6 ar
    11    5    7 1
    12    6   29 1
    13    7    8 3
    14    9   10 2
    15    9   11 2
    16    9   12 1
    17   12   13 1
    18   12   30 1
    19   13   14 1
    20   13   31 1
    21   13   32 1
    22   14   19 ar
    23   14   15 ar
    24   15   16 ar
    25   15   33 1
    26   16   17 ar
    27   16   34 1
    28   17   18 ar
    29   17   20 1
    30   18   19 ar
    31   18   35 1
    32   19   36 1
    33   20   21 1
    34   20   37 1
    35   20   38 1
    36   21   25 1
    37   21   22 1
    38   22   23 2
    39   22   39 1
    40   23   24 1
    41   23   40 1
    42   24   25 2
    43   24   41 1
@<TRIPOS>MOLECULE
ZINC32787685
   47    48     0     0     0
SMALL
USER_CHARGES
(E)-3-(5-chloro-1-isobutyl-3-methyl-pyrazol-4-yl)-2-cyano-N-[[(2S)-tetrahydrofuran-2-yl]methyl]prop-2-enamide
@<TRIPOS>ATOM
      1 C1         -4.0550    7.0866    8.0253 C.3       1 <0>        -0.0830
      2 C2         -3.0239    6.0669    8.4352 C.2       1 <0>         0.1221
      3 C3         -2.6458    4.9201    7.6931 C.2       1 <0>        -0.2411
      4 C4         -1.6670    4.2651    8.4304 C.2       1 <0>         0.1572
      5 N1         -1.4727    4.9748    9.5539 N.pl3     1 <0>        -0.3386
      6 N2         -2.3263    6.0829    9.5358 N.2       1 <0>        -0.2706
      7 C5         -0.5242    4.6440   10.6204 C.3       1 <0>         0.1217
      8 C6          0.8245    5.3037   10.3260 C.3       1 <0>        -0.1120
      9 C7          1.7769    5.0626   11.4989 C.3       1 <0>        -0.1465
     10 C8          1.4205    4.7000    9.0527 C.3       1 <0>        -0.1572
     11 Cl1        -0.8480    2.8014    7.9827 Cl        1 <0>         0.0194
     12 C9         -3.1797    4.5081    6.3959 C.2       1 <0>         0.1081
     13 C10        -2.3191    4.1936    5.3640 C.2       1 <0>        -0.1307
     14 C11        -0.9032    4.2708    5.5638 C.1       1 <0>         0.2434
     15 N3          0.2201    4.3320    5.7222 N.1       1 <0>        -0.4024
     16 C12        -2.8557    3.7795    4.0600 C.2       1 <0>         0.5781
     17 O1         -4.0587    3.7139    3.8902 O.2       1 <0>        -0.5344
     18 N4         -2.0152    3.4723    3.0521 N.am      1 <0>        -0.7320
     19 C13        -2.5502    3.0595    1.7523 C.3       1 <0>         0.1237
     20 C14        -1.3936    2.7709    0.7932 C.3       1 <0>         0.0576
     21 H1         -0.7035    3.6258    0.8468 H         1 <0>         0.0783
     22 C15        -1.9281    2.4530   -0.6265 C.3       1 <0>        -0.1436
     23 C16        -0.7781    1.6063   -1.2241 C.3       1 <0>        -0.1539
     24 C17        -0.0127    1.0858    0.0080 C.3       1 <0>         0.0477
     25 O2         -0.7045    1.5588    1.1759 O.3       1 <0>        -0.3716
     26 H2         -4.4766    6.8092    7.0479 H         1 <0>         0.0868
     27 H3         -3.5824    8.0773    7.9530 H         1 <0>         0.0855
     28 H4         -4.8586    7.1176    8.7758 H         1 <0>         0.0876
     29 H5         -0.9106    5.0126   11.5821 H         1 <0>         0.1094
     30 H6         -0.3954    3.5527   10.6711 H         1 <0>         0.1004
     31 H7          0.6809    6.3853   10.1865 H         1 <0>         0.0826
     32 H8          2.7466    5.5369   11.2873 H         1 <0>         0.0668
     33 H9          1.9204    3.9809   11.6383 H         1 <0>         0.0607
     34 H10         1.3484    5.4966   12.4143 H         1 <0>         0.0616
     35 H11         2.3902    5.1743    8.8411 H         1 <0>         0.0633
     36 H12         0.7357    4.8733    8.2095 H         1 <0>         0.0588
     37 H13         1.5641    3.6184    9.1922 H         1 <0>         0.0587
     38 H14        -4.2673    4.4488    6.2424 H         1 <0>         0.1724
     39 H15        -0.9276    3.5315    3.2055 H         1 <0>         0.4234
     40 H16        -3.1580    2.1513    1.8777 H         1 <0>         0.0800
     41 H17        -3.1757    3.8653    1.3406 H         1 <0>         0.0866
     42 H18        -2.8743    1.8978   -0.5462 H         1 <0>         0.0844
     43 H19        -2.0994    3.3923   -1.1727 H         1 <0>         0.0851
     44 H20        -1.1999    0.7869   -1.8246 H         1 <0>         0.0808
     45 H21        -0.1481    2.2425   -1.8631 H         1 <0>         0.0780
     46 H22         0.0058   -0.0139   -0.0095 H         1 <0>         0.0866
     47 H23         1.0178    1.4702   -0.0111 H         1 <0>         0.0606
@<TRIPOS>BOND
     1    1    2 1
     2    1   26 1
     3    1   27 1
     4    1   28 1
     5    2    6 2
     6    2    3 1
     7    3    4 2
     8    3   12 1
     9    4    5 1
    10    4   11 1
    11    5    6 1
    12    5    7 1
    13    7    8 1
    14    7   29 1
    15    7   30 1
    16    8    9 1
    17    8   10 1
    18    8   31 1
    19    9   32 1
    20    9   33 1
    21    9   34 1
    22   10   35 1
    23   10   36 1
    24   10   37 1
    25   12   13 2
    26   12   38 1
    27   13   14 1
    28   13   16 1
    29   14   15 3
    30   16   17 2
    31   16   18 am
    32   18   19 1
    33   18   39 1
    34   19   20 1
    35   19   40 1
    36   19   41 1
    37   20   21 1
    38   20   25 1
    39   20   22 1
    40   22   23 1
    41   22   42 1
    42   22   43 1
    43   23   24 1
    44   23   44 1
    45   23   45 1
    46   24   25 1
    47   24   46 1
    48   24   47 1
@<TRIPOS>MOLECULE
ZINC50670385
   36    37     0     0     0
SMALL
USER_CHARGES

@<TRIPOS>ATOM
      1 C1         -0.0187    1.5258    0.0104 C.3       1 <0>        -0.1683
      2 C2          0.0021   -0.0041    0.0020 C.3       1 <0>         0.1250
      3 N1          0.6878   -0.4765   -1.2033 N.pl3     1 <0>        -0.6833
      4 C3          0.8306   -1.8342   -1.4310 C.ar      1 <0>         0.6006
      5 N2          0.3364   -2.6930   -0.5514 N.ar      1 <0>        -0.5662
      6 C4          0.4554   -3.9970   -0.7391 C.ar      1 <0>         0.3063
      7 C5          1.1060   -4.4604   -1.8718 C.ar      1 <0>        -0.8618
      8 C6          1.6109   -3.5346   -2.7714 C.ar      1 <0>         0.2981
      9 N3          1.4534   -2.2444   -2.5261 N.ar      1 <0>        -0.5772
     10 S1          1.2878   -6.1888   -2.1617 S.o2      1 <0>         2.7040
     11 O1          2.4117   -6.3411   -3.0177 O.2       1 <0>        -0.9459
     12 O2          1.2045   -6.8243   -0.8935 O.2       1 <0>        -0.9500
     13 N4         -0.0358   -6.6822   -3.0261 N.pl3     1 <0>        -0.9948
     14 C7         -0.0063   -6.6543   -4.4906 C.3       1 <0>         0.0894
     15 C8         -1.2362   -7.1466   -2.3264 C.3       1 <0>         0.1968
     16 C9         -2.2064   -6.0028   -2.1801 C.2       1 <0>        -0.1751
     17 C10        -3.1984   -5.6132   -3.0171 C.2       1 <0>        -0.1248
     18 C11        -3.9742   -4.5209   -2.6752 C.2       1 <0>        -0.1427
     19 C12        -3.7187   -3.8719   -1.5117 C.2       1 <0>        -0.1119
     20 S2         -2.3519   -4.8146   -0.8557 S.3       1 <0>         0.0911
     21 Cl1        -4.5178   -2.4880   -0.8335 Cl        1 <0>         0.0200
     22 H1          1.0039    1.9031    0.0027 H         1 <0>         0.0641
     23 H2         -0.5459    1.8868   -0.8726 H         1 <0>         0.0634
     24 H3         -0.5289    1.8773    0.9072 H         1 <0>         0.0804
     25 H4          0.5293   -0.3651    0.8851 H         1 <0>         0.0738
     26 H5         -1.0205   -0.3814    0.0098 H         1 <0>         0.0729
     27 H6          1.0417    0.1622   -1.8418 H         1 <0>         0.4181
     28 H7          0.0508   -4.6921   -0.0183 H         1 <0>         0.1748
     29 H8          2.1234   -3.8628   -3.6636 H         1 <0>         0.1823
     30 H9          0.3663   -7.6079   -4.8647 H         1 <0>         0.0695
     31 H10        -1.0132   -6.4830   -4.8711 H         1 <0>         0.0763
     32 H11         0.6502   -5.8511   -4.8255 H         1 <0>         0.0737
     33 H12        -1.7031   -7.9482   -2.8986 H         1 <0>         0.1182
     34 H13        -0.9606   -7.5177   -1.3393 H         1 <0>         0.1154
     35 H14        -3.3802   -6.1479   -3.9377 H         1 <0>         0.1445
     36 H15        -4.7710   -4.1893   -3.3246 H         1 <0>         0.1435
@<TRIPOS>BOND
     1    1    2 1
     2    1   22 1
     3    1   23 1
     4    1   24 1
     5    2    3 1
     6    2   25 1
     7    2   26 1
     8    3    4 1
     9    3   27 1
    10    4    9 ar
    11    4    5 ar
    12    5    6 ar
    13    6    7 ar
    14    6   28 1
    15    7    8 ar
    16    7   10 1
    17    8    9 ar
    18    8   29 1
    19   10   11 2
    20   10   12 2
    21   10   13 1
    22   13   14 1
    23   13   15 1
    24   14   30 1
    25   14   31 1
    26   14   32 1
    27   15   16 1
    28   15   33 1
    29   15   34 1
    30   16   20 1
    31   16   17 2
    32   17   18 1
    33   17   35 1
    34   18   19 2
    35   18   36 1
    36   19   20 1
    37   19   21 1
@<TRIPOS>MOLECULE
ZINC66175337
   51    52     0     0     0
SMALL
USER_CHARGES

@<TRIPOS>ATOM
      1 C1         -0.2726    1.4818   -0.1230 C.3       1 <0>        -0.1826
      2 C2         -0.1413   -0.0208    0.1338 C.3       1 <0>         0.1306
      3 C3          0.7371   -0.2529    1.3648 C.3       1 <0>        -0.1830
      4 N1         -1.4691   -0.5944    0.3661 N.am      1 <0>        -0.6208
      5 C4         -1.9564   -1.6823   -0.4855 C.3       1 <0>         0.1661
      6 C5         -1.5568   -3.0063    0.1131 C.ar      1 <0>        -0.0787
      7 C6         -0.3460   -3.5805   -0.2316 C.ar      1 <0>        -0.1072
      8 C7          0.0260   -4.7923    0.3126 C.ar      1 <0>        -0.0742
      9 C8         -0.8222   -5.4393    1.2135 C.ar      1 <0>        -0.0256
     10 C9         -2.0424   -4.8539    1.5572 C.ar      1 <0>        -0.0717
     11 C10        -2.3998   -3.6394    1.0091 C.ar      1 <0>        -0.0945
     12 C11        -0.4427   -6.6976    1.7819 C.1       1 <0>         0.2506
     13 N2         -0.1417   -7.6959    2.2329 N.1       1 <0>        -0.4135
     14 C12        -2.2425   -0.1213    1.3634 C.2       1 <0>         0.7117
     15 O1         -3.3784   -0.5330    1.4994 O.2       1 <0>        -0.5793
     16 N3         -1.7567    0.8083    2.2098 N.am      1 <0>        -0.7519
     17 C13        -2.5514    1.2341    3.3646 C.3       1 <0>         0.1473
     18 C14        -1.7759    2.2890    4.1562 C.3       1 <0>        -0.1491
     19 C15        -2.5933    2.7270    5.3441 C.2       1 <0>         0.5335
     20 O2         -3.6883    2.2431    5.5384 O.2       1 <0>        -0.5304
     21 N4         -2.1076    3.6566    6.1905 N.am      1 <0>        -0.6220
     22 C16        -0.8045    4.3269    6.0709 C.3       1 <0>         0.0974
     23 C17        -0.6704    5.2856    7.2728 C.3       1 <0>        -0.1335
     24 C18        -1.6593    4.6862    8.3074 C.3       1 <0>        -0.1349
     25 C19        -2.7975    4.1742    7.3861 C.3       1 <0>         0.1031
     26 H1          0.7198    1.9291   -0.1779 H         1 <0>         0.0747
     27 H2         -0.7972    1.6450   -1.0644 H         1 <0>         0.0671
     28 H3         -0.8340    1.9417    0.6902 H         1 <0>         0.0655
     29 H4          0.3145   -0.4991   -0.7332 H         1 <0>         0.0974
     30 H5          0.2268    0.1233    2.2514 H         1 <0>         0.0660
     31 H6          0.9264   -1.3202    1.4800 H         1 <0>         0.0671
     32 H7          1.6838    0.2727    1.2400 H         1 <0>         0.0725
     33 H8         -3.0427   -1.6290   -0.5572 H         1 <0>         0.1003
     34 H9         -1.5215   -1.5874   -1.4805 H         1 <0>         0.0907
     35 H10         0.3091   -3.0790   -0.9285 H         1 <0>         0.1317
     36 H11         0.9710   -5.2397    0.0421 H         1 <0>         0.1327
     37 H12        -2.7032   -5.3489    2.2534 H         1 <0>         0.1331
     38 H13        -3.3414   -3.1835    1.2773 H         1 <0>         0.1406
     39 H14        -0.8810    1.1953    2.0544 H         1 <0>         0.4010
     40 H15        -3.4943    1.6587    3.0201 H         1 <0>         0.0776
     41 H16        -2.7521    0.3747    4.0043 H         1 <0>         0.0758
     42 H17        -0.8330    1.8644    4.5007 H         1 <0>         0.0991
     43 H18        -1.5752    3.1484    3.5165 H         1 <0>         0.0995
     44 H19        -0.0038    3.5878    6.0951 H         1 <0>         0.0706
     45 H20        -0.7624    4.8918    5.1397 H         1 <0>         0.0706
     46 H21         0.3477    5.2760    7.6620 H         1 <0>         0.0848
     47 H22        -0.9687    6.2965    6.9950 H         1 <0>         0.0789
     48 H23        -1.1989    3.8659    8.8581 H         1 <0>         0.0776
     49 H24        -2.0258    5.4545    8.9881 H         1 <0>         0.0867
     50 H25        -3.4655    4.9915    7.1145 H         1 <0>         0.0702
     51 H26        -3.3535    3.3763    7.8784 H         1 <0>         0.0805
@<TRIPOS>BOND
     1    1    2 1
     2    1   26 1
     3    1   27 1
     4    1   28 1
     5    2    3 1
     6    2    4 1
     7    2   29 1
     8    3   30 1
     9    3   31 1
    10    3   32 1
    11    4    5 1
    12    4   14 am
    13    5    6 1
    14    5   33 1
    15    5   34 1
    16    6   11 ar
    17    6    7 ar
    18    7    8 ar
    19    7   35 1
    20    8    9 ar
    21    8   36 1
    22    9   10 ar
    23    9   12 1
    24   10   11 ar
    25   10   37 1
    26   11   38 1
    27   12   13 3
    28   14   15 2
    29   14   16 am
    30   16   17 1
    31   16   39 1
    32   17   18 1
    33   17   40 1
    34   17   41 1
    35   18   19 1
    36   18   42 1
    37   18   43 1
    38   19   20 2
    39   19   21 am
    40   21   25 1
    41   21   22 1
    42   22   23 1
    43   22   44 1
    44   22   45 1
    45   23   24 1
    46   23   46 1
    47   23   47 1
    48   24   25 1
    49   24   48 1
    50   24   49 1
    51   25   50 1
    52   25   51 1
@<TRIPOS>MOLECULE
ZINC67590906
   51    53     0     0     0
SMALL
USER_CHARGES

@<TRIPOS>ATOM
      1 C1         -0.0249    1.5323    0.0279 C.3       1 <0>        -0.1516
      2 C2         -0.0012    0.0025    0.0158 C.3       1 <0>         0.0548
      3 O1         -1.3409   -0.4947    0.0211 O.3       1 <0>        -0.3784
      4 C3         -1.4317   -1.9207    0.0106 C.3       1 <0>         0.0781
      5 H1         -0.5703   -2.3363   -0.5123 H         1 <0>         0.0637
      6 C4         -2.7166   -2.3456   -0.7040 C.3       1 <0>        -0.1167
      7 C5         -2.7985   -3.8732   -0.7446 C.3       1 <0>        -0.1322
      8 C6         -2.8392   -4.4167    0.6871 C.3       1 <0>         0.1091
      9 N1         -1.6808   -3.8939    1.4244 N.am      1 <0>        -0.6266
     10 C7         -1.4560   -2.4421    1.4508 C.3       1 <0>         0.1093
     11 C8         -0.8399   -4.7303    2.0646 C.2       1 <0>         0.7081
     12 O2          0.1663   -4.2955    2.5907 O.2       1 <0>        -0.5819
     13 N2         -1.1144   -6.0485    2.1218 N.am      1 <0>        -0.7435
     14 C9         -0.2602   -6.9412    2.9089 C.3       1 <0>         0.1646
     15 C10        -0.7798   -8.3522    2.8076 C.ar      1 <0>        -0.0720
     16 C11        -1.5493   -8.8803    3.8276 C.ar      1 <0>        -0.1035
     17 C12        -2.0258  -10.1744    3.7347 C.ar      1 <0>        -0.1081
     18 C13        -1.7333  -10.9405    2.6216 C.ar      1 <0>        -0.1145
     19 C14        -0.9648  -10.4122    1.6015 C.ar      1 <0>        -0.1012
     20 C15        -0.4917   -9.1163    1.6925 C.ar      1 <0>        -0.0963
     21 C16         0.3419   -8.5384    0.5779 C.3       1 <0>         0.1713
     22 N3          1.7626   -8.7118    0.8903 N.pl3     1 <0>        -0.3698
     23 C17         2.6808   -9.3122    0.1044 C.2       1 <0>         0.0510
     24 C18         3.8691   -9.2672    0.7501 C.2       1 <0>        -0.2714
     25 C19         3.6703   -8.6170    1.9725 C.2       1 <0>         0.0456
     26 N4          2.4092   -8.2783    2.0550 N.2       1 <0>        -0.2862
     27 H2          0.9970    1.9115    0.0239 H         1 <0>         0.0719
     28 H3         -0.5504    1.8945   -0.8557 H         1 <0>         0.0628
     29 H4         -0.5383    1.8807    0.9241 H         1 <0>         0.0638
     30 H5          0.5121   -0.3458   -0.8804 H         1 <0>         0.0487
     31 H6          0.5242   -0.3597    0.8995 H         1 <0>         0.0512
     32 H7         -3.5786   -1.9499   -0.1669 H         1 <0>         0.0753
     33 H8         -2.7124   -1.9549   -1.7216 H         1 <0>         0.0746
     34 H9         -3.7022   -4.1752   -1.2742 H         1 <0>         0.0852
     35 H10        -1.9243   -4.2709   -1.2600 H         1 <0>         0.0686
     36 H11        -3.7589   -4.0935    1.1747 H         1 <0>         0.0745
     37 H12        -2.7977   -5.5057    0.6658 H         1 <0>         0.0775
     38 H13        -0.5021   -2.2283    1.9330 H         1 <0>         0.0949
     39 H14        -2.2627   -1.9579    2.0012 H         1 <0>         0.0748
     40 H15        -1.8776   -6.4063    1.6417 H         1 <0>         0.3939
     41 H16         0.7591   -6.9009    2.5247 H         1 <0>         0.1041
     42 H17        -0.2680   -6.6251    3.9521 H         1 <0>         0.0721
     43 H18        -1.7778   -8.2819    4.6971 H         1 <0>         0.1275
     44 H19        -2.6264  -10.5872    4.5317 H         1 <0>         0.1273
     45 H20        -2.1051  -11.9519    2.5493 H         1 <0>         0.1268
     46 H21        -0.7361  -11.0108    0.7322 H         1 <0>         0.1242
     47 H22         0.1093   -9.0534   -0.3542 H         1 <0>         0.1039
     48 H23         0.1202   -7.4765    0.4715 H         1 <0>         0.0933
     49 H24         2.4996   -9.7504   -0.8659 H         1 <0>         0.1719
     50 H25         4.8054   -9.6637    0.3862 H         1 <0>         0.1470
     51 H26         4.4280   -8.4236    2.7174 H         1 <0>         0.1824
@<TRIPOS>BOND
     1    1    2 1
     2    1   27 1
     3    1   28 1
     4    1   29 1
     5    2    3 1
     6    2   30 1
     7    2   31 1
     8    3    4 1
     9    4    5 1
    10    4   10 1
    11    4    6 1
    12    6    7 1
    13    6   32 1
    14    6   33 1
    15    7    8 1
    16    7   34 1
    17    7   35 1
    18    8    9 1
    19    8   36 1
    20    8   37 1
    21    9   10 1
    22    9   11 am
    23   10   38 1
    24   10   39 1
    25   11   12 2
    26   11   13 am
    27   13   14 1
    28   13   40 1
    29   14   15 1
    30   14   41 1
    31   14   42 1
    32   15   20 ar
    33   15   16 ar
    34   16   17 ar
    35   16   43 1
    36   17   18 ar
    37   17   44 1
    38   18   19 ar
    39   18   45 1
    40   19   20 ar
    41   19   46 1
    42   20   21 1
    43   21   22 1
    44   21   47 1
    45   21   48 1
    46   22   26 1
    47   22   23 1
    48   23   24 2
    49   23   49 1
    50   24   25 1
    51   24   50 1
    52   25   26 2
    53   25   51 1
@<TRIPOS>MOLECULE
ZINC20357662
   14    14     0     0     0
SMALL
USER_CHARGES
3-chloro-5-(trifluoromethyl)-2H-pyrazole-4-carbaldehyde
@<TRIPOS>ATOM
      1 C1          1.8320   -1.7757   -0.0250 C.2       1 <0>         0.3988
      2 O1          3.0267   -1.9870   -0.0371 O.2       1 <0>        -0.4357
      3 C2          1.3317   -0.3987   -0.0128 C.2       1 <0>        -0.2800
      4 C3          2.1140    0.7817   -0.0139 C.2       1 <0>         0.0407
      5 N1          1.3036    1.8023   -0.0007 N.2       1 <0>        -0.2193
      6 N2         -0.0161    1.3381    0.0094 N.pl3     1 <0>        -0.4400
      7 H1         -0.8510    2.0542    0.0212 H         1 <0>         0.4933
      8 C4          0.0021   -0.0041    0.0020 C.2       1 <0>         0.1976
      9 Cl1        -1.3820   -1.0518    0.0105 Cl        1 <0>         0.0395
     10 C5          3.6196    0.8465   -0.0275 C.3       1 <0>         0.5528
     11 F1          4.0733    0.8733   -1.3506 F         1 <0>        -0.1632
     12 F2          4.0425    2.0043    0.6341 F         1 <0>        -0.1660
     13 F3          4.1405   -0.2781    0.6214 F         1 <0>        -0.1400
     14 H2          1.1245   -2.6180   -0.0232 H         1 <0>         0.1216
@<TRIPOS>BOND
     1    1    2 2
     2    1    3 1
     3    1   14 1
     4    3    8 2
     5    3    4 1
     6    4    5 2
     7    4   10 1
     8    5    6 1
     9    6    7 1
    10    6    8 1
    11    8    9 1
    12   10   11 1
    13   10   12 1
    14   10   13 1
@<TRIPOS>MOLECULE
ZINC39094493
   30    31     0     0     0
SMALL
USER_CHARGES

@<TRIPOS>ATOM
      1 C1         -0.0187    1.5258    0.0104 C.3       1 <0>        -0.1476
      2 C2          0.0021   -0.0041    0.0020 C.3       1 <0>        -0.0619
      3 C3         -1.4264   -0.5346    0.1405 C.3       1 <0>        -0.1108
      4 C4         -2.0362   -0.0305    1.4501 C.3       1 <0>        -0.1238
      5 C5         -1.1994   -0.5364    2.6286 C.3       1 <0>        -0.1098
      6 C6          0.2334   -0.0419    2.4857 C.3       1 <0>         0.0980
      7 C7          0.8482   -0.5098    1.1738 C.3       1 <0>        -0.1194
      8 C8          1.0870   -0.5144    3.6783 C.3       1 <0>         0.0700
      9 N1          1.9513    0.6590    3.9232 N.am      1 <0>        -0.7419
     10 C9          1.4284    1.7015    3.2493 C.2       1 <0>         0.6398
     11 O1          1.9282    2.8090    3.2314 O.2       1 <0>        -0.5185
     12 O2          0.2944    1.3863    2.5977 O.3       1 <0>        -0.3075
     13 C10         0.6053   -0.4990   -1.3141 C.3       1 <0>        -0.1427
     14 H1          1.0030    1.9027    0.0581 H         1 <0>         0.0503
     15 H2         -0.4974    1.8877   -0.8995 H         1 <0>         0.0512
     16 H3         -0.5764    1.8768    0.8787 H         1 <0>         0.0783
     17 H4         -2.0270   -0.1833   -0.6985 H         1 <0>         0.0673
     18 H5         -1.4101   -1.6245    0.1436 H         1 <0>         0.0640
     19 H6         -2.0444    1.0595    1.4514 H         1 <0>         0.0756
     20 H7         -3.0567   -0.4021    1.5427 H         1 <0>         0.0700
     21 H8         -1.6216   -0.1616    3.5610 H         1 <0>         0.0779
     22 H9         -1.2081   -1.6263    2.6386 H         1 <0>         0.0889
     23 H10         0.8793   -1.5992    1.1556 H         1 <0>         0.0870
     24 H11         1.8610   -0.1165    1.0868 H         1 <0>         0.0714
     25 H12         0.4612   -0.7246    4.5456 H         1 <0>         0.0909
     26 H13         1.6824   -1.3868    3.4092 H         1 <0>         0.1001
     27 H14         2.7514    0.6755    4.4713 H         1 <0>         0.4346
     28 H15         1.6231   -0.1214   -1.4120 H         1 <0>         0.0550
     29 H16         0.6200   -1.5889   -1.3198 H         1 <0>         0.0550
     30 H17         0.0025   -0.1394   -2.1480 H         1 <0>         0.0586
@<TRIPOS>BOND
     1    1    2 1
     2    1   14 1
     3    1   15 1
     4    1   16 1
     5    2    7 1
     6    2    3 1
     7    2   13 1
     8    3    4 1
     9    3   17 1
    10    3   18 1
    11    4    5 1
    12    4   19 1
    13    4   20 1
    14    5    6 1
    15    5   21 1
    16    5   22 1
    17    6   12 1
    18    6    7 1
    19    6    8 1
    20    7   23 1
    21    7   24 1
    22    8    9 1
    23    8   25 1
    24    8   26 1
    25    9   10 am
    26    9   27 1
    27   10   11 2
    28   10   12 1
    29   13   28 1
    30   13   29 1
    31   13   30 1
@<TRIPOS>MOLECULE
ZINC43298919
   26    27     0     0     0
SMALL
USER_CHARGES

@<TRIPOS>ATOM
      1 C1         -0.0169    1.3945    0.0097 C.2       1 <0>        -0.2289
      2 C2          1.2648    1.8283   -0.0002 C.2       1 <0>         0.0620
      3 N1          2.0664    0.7428   -0.0137 N.pl3     1 <0>        -0.3435
      4 N2          1.2503   -0.3958   -0.0120 N.2       1 <0>        -0.2307
      5 C3          0.0021   -0.0041    0.0020 C.2       1 <0>        -0.0208
      6 C4         -1.2065   -0.9042    0.0092 C.3       1 <0>         0.5566
      7 F1         -1.5936   -1.1757   -1.3075 F         1 <0>        -0.1676
      8 F2         -0.8917   -2.1024    0.6592 F         1 <0>        -0.1670
      9 F3         -2.2562   -0.2702    0.6825 F         1 <0>        -0.1648
     10 C5          3.5313    0.7533   -0.0280 C.3       1 <0>         0.1549
     11 H1          3.9065   -0.1646   -0.4806 H         1 <0>         0.1226
     12 C6          4.0433    1.9778   -0.8142 C.3       1 <0>        -0.1317
     13 C7          4.3160    3.0428    0.2769 C.3       1 <0>        -0.1277
     14 C8          4.8929    2.1995    1.4410 C.3       1 <0>        -0.1580
     15 C9          4.0715    0.8929    1.4060 C.3       1 <0>         0.0920
     16 H2          3.2437    0.9530    2.1126 H         1 <0>         0.0675
     17 O1          4.9080   -0.2209    1.7246 O.3       1 <0>        -0.5583
     18 H3         -0.8986    2.0179    0.0255 H         1 <0>         0.1637
     19 H4          1.5883    2.8587    0.0022 H         1 <0>         0.1866
     20 H5          4.9626    1.7325   -1.3461 H         1 <0>         0.0994
     21 H6          3.2816    2.3305   -1.5096 H         1 <0>         0.0856
     22 H7          5.0470    3.7731   -0.0703 H         1 <0>         0.0837
     23 H8          3.3904    3.5338    0.5773 H         1 <0>         0.0728
     24 H9          5.9494    1.9900    1.2733 H         1 <0>         0.0862
     25 H10         4.7512    2.7140    2.3914 H         1 <0>         0.0782
     26 H11         5.2798   -0.1911    2.6168 H         1 <0>         0.3871
@<TRIPOS>BOND
     1    1    5 1
     2    1    2 2
     3    1   18 1
     4    2    3 1
     5    2   19 1
     6    3    4 1
     7    3   10 1
     8    4    5 2
     9    5    6 1
    10    6    7 1
    11    6    8 1
    12    6    9 1
    13   10   11 1
    14   10   15 1
    15   10   12 1
    16   12   13 1
    17   12   20 1
    18   12   21 1
    19   13   14 1
    20   13   22 1
    21   13   23 1
    22   14   15 1
    23   14   24 1
    24   14   25 1
    25   15   16 1
    26   15   17 1
    27   17   26 1
@<TRIPOS>MOLECULE
ZINC51886378
   29    30     0     0     0
SMALL
USER_CHARGES

@<TRIPOS>ATOM
      1 C1         -0.0166    1.3737    0.0096 C.ar      1 <0>        -0.1232
      2 C2          1.1696    2.0900    0.0021 C.ar      1 <0>        -0.0828
      3 C3          2.3829    1.4324   -0.0134 C.ar      1 <0>        -0.1260
      4 C4          2.4221    0.0442   -0.0212 C.ar      1 <0>         0.2385
      5 C5          1.2224   -0.6845   -0.0132 C.ar      1 <0>        -0.0425
      6 C6          0.0021   -0.0041    0.0020 C.ar      1 <0>        -0.0657
      7 C7          1.2490   -2.1162   -0.0211 C.1       1 <0>         0.2596
      8 N1          1.2701   -3.2520   -0.0273 N.1       1 <0>        -0.4164
      9 N2          3.6432   -0.6203   -0.0373 N.pl3     1 <0>        -0.6914
     10 C8          4.3886   -1.0190   -1.2451 C.3       1 <0>         0.1295
     11 C9          5.8634   -1.1265   -0.7836 C.3       1 <0>        -0.1189
     12 C10         5.7011   -1.7117    0.6442 C.3       1 <0>        -0.1013
     13 H1          5.5850   -2.7948    0.6061 H         1 <0>         0.0885
     14 C11         4.4081   -1.0363    1.1474 C.3       1 <0>         0.1421
     15 C12         6.8914   -1.3275    1.5253 C.3       1 <0>         0.0872
     16 O1          8.0726   -1.9646    1.0345 O.3       1 <0>        -0.5716
     17 H2         -0.9606    1.8981    0.0259 H         1 <0>         0.1351
     18 H3          1.1445    3.1697    0.0081 H         1 <0>         0.1325
     19 H4          3.3030    1.9981   -0.0199 H         1 <0>         0.1332
     20 H5         -0.9254   -0.5574    0.0082 H         1 <0>         0.1339
     21 H6          4.0337   -1.9833   -1.6089 H         1 <0>         0.0491
     22 H7          4.2882   -0.2597   -2.0207 H         1 <0>         0.0658
     23 H8          6.4244   -1.8075   -1.4235 H         1 <0>         0.0831
     24 H9          6.3354   -0.1445   -0.7519 H         1 <0>         0.0751
     25 H10         4.6547   -0.1649    1.7541 H         1 <0>         0.0563
     26 H11         3.8254   -1.7463    1.7343 H         1 <0>         0.0510
     27 H12         7.0259   -0.2460    1.5029 H         1 <0>         0.0492
     28 H13         6.7040   -1.6492    2.5497 H         1 <0>         0.0479
     29 H14         8.8685   -1.7654    1.5463 H         1 <0>         0.3823
@<TRIPOS>BOND
     1    1    6 ar
     2    1    2 ar
     3    1   17 1
     4    2    3 ar
     5    2   18 1
     6    3    4 ar
     7    3   19 1
     8    4    5 ar
     9    4    9 1
    10    5    6 ar
    11    5    7 1
    12    6   20 1
    13    7    8 3
    14    9   14 1
    15    9   10 1
    16   10   11 1
    17   10   21 1
    18   10   22 1
    19   11   12 1
    20   11   23 1
    21   11   24 1
    22   12   13 1
    23   12   14 1
    24   12   15 1
    25   14   25 1
    26   14   26 1
    27   15   16 1
    28   15   27 1
    29   15   28 1
    30   16   29 1
@<TRIPOS>MOLECULE
ZINC65339116
   23    24     0     0     0
SMALL
USER_CHARGES

@<TRIPOS>ATOM
      1 C1         -1.7763    1.3677    1.0683 C.2       1 <0>        -0.0173
      2 C2         -1.7635   -0.0293    1.0633 C.2       1 <0>        -0.1989
      3 C3         -1.1854   -0.7030    0.0096 C.2       1 <0>         0.1945
      4 N1         -0.6260   -0.0102   -1.0280 N.am      1 <0>        -0.5979
      5 C4         -0.6317    1.3362   -1.0354 C.2       1 <0>         0.5176
      6 C5         -1.2189    2.0475    0.0224 C.2       1 <0>        -0.2324
      7 O1         -0.1284    1.9408   -1.9687 O.2       1 <0>        -0.5483
      8 C6         -1.1695   -2.1799    0.0010 C.ar      1 <0>        -0.1114
      9 C7         -2.3623   -2.8921    0.1078 C.ar      1 <0>        -0.0091
     10 C8         -2.3383   -4.2855    0.0984 C.ar      1 <0>        -0.0309
     11 C9         -1.1195   -4.9610   -0.0180 C.ar      1 <0>        -0.0234
     12 C10         0.0589   -4.2522   -0.1230 C.ar      1 <0>        -0.1484
     13 C11         0.0435   -2.8680   -0.1203 C.ar      1 <0>         0.1507
     14 F1          1.2012   -2.1803   -0.2296 F         1 <0>        -0.1206
     15 C12        -3.5600   -5.0244    0.2082 C.1       1 <0>         0.2461
     16 N2         -4.5292   -5.6106    0.2953 N.1       1 <0>        -0.3938
     17 H1         -2.2269    1.9055    1.8894 H         1 <0>         0.1427
     18 H2         -2.2045   -0.5787    1.8820 H         1 <0>         0.1509
     19 H3         -1.2222    3.1274    0.0140 H         1 <0>         0.1527
     20 H4         -0.2210   -0.4930   -1.7653 H         1 <0>         0.4145
     21 H5         -3.3015   -2.3665    0.1978 H         1 <0>         0.1540
     22 H6         -1.1008   -6.0408   -0.0253 H         1 <0>         0.1519
     23 H7          0.9972   -4.7793   -0.2122 H         1 <0>         0.1570
@<TRIPOS>BOND
     1    1    2 1
     2    1   17 1
     3    1    6 2
     4    2    3 2
     5    2   18 1
     6    3    4 1
     7    3    8 1
     8    4    5 am
     9    4   20 1
    10    5    7 2
    11    5    6 1
    12    6   19 1
    13    8   13 ar
    14    8    9 ar
    15    9   10 ar
    16    9   21 1
    17   10   11 ar
    18   10   15 1
    19   11   12 ar
    20   11   22 1
    21   12   13 ar
    22   12   23 1
    23   13   14 1
    24   15   16 3
@<TRIPOS>MOLECULE
ZINC16147689
   32    33     0     0     0
SMALL
USER_CHARGES
6-chloro-N-(3-ethylphenyl)pyridine-3-sulfonamide
@<TRIPOS>ATOM
      1 C1         -1.6997    6.3903   -6.8136 C.3       1 <0>        -0.1481
      2 C2         -1.8289    5.2160   -5.8414 C.3       1 <0>        -0.0879
      3 C3         -2.0143    5.7412   -4.4411 C.ar      1 <0>        -0.0633
      4 C4         -3.2871    5.9823   -3.9567 C.ar      1 <0>        -0.1225
      5 C5         -3.4616    6.4646   -2.6727 C.ar      1 <0>        -0.0926
      6 C6         -2.3645    6.7076   -1.8695 C.ar      1 <0>        -0.1591
      7 C7         -1.0849    6.4666   -2.3528 C.ar      1 <0>         0.1389
      8 C8         -0.9129    5.9865   -3.6452 C.ar      1 <0>        -0.1270
      9 N1          0.0268    6.7117   -1.5435 N.pl3     1 <0>        -1.0525
     10 S1          0.0272    6.2132    0.0357 S.o2      1 <0>         2.6999
     11 O1         -1.2005    6.6524    0.6006 O.2       1 <0>        -0.9382
     12 O2          1.2890    6.5797    0.5769 O.2       1 <0>        -0.9408
     13 C9         -0.0243    4.4520    0.0262 C.ar      1 <0>        -0.7386
     14 C10        -1.2406    3.7852    0.0342 C.ar      1 <0>         0.0454
     15 C11        -1.2336    2.3996    0.0210 C.ar      1 <0>        -0.1743
     16 C12        -0.0215    1.7317    0.0116 C.ar      1 <0>         0.2270
     17 N2          1.1164    2.3997    0.0043 N.ar      1 <0>        -0.4875
     18 C13         1.1462    3.7184    0.0111 C.ar      1 <0>         0.2247
     19 Cl1         0.0021   -0.0041    0.0020 Cl        1 <0>        -0.0080
     20 H1         -2.6029    6.9989   -6.7704 H         1 <0>         0.0574
     21 H2         -0.8384    6.9983   -6.5366 H         1 <0>         0.0560
     22 H3         -1.5656    6.0105   -7.8265 H         1 <0>         0.0601
     23 H4         -0.9256    4.6075   -5.8847 H         1 <0>         0.0727
     24 H5         -2.6902    4.6081   -6.1185 H         1 <0>         0.0753
     25 H6         -4.1466    5.7939   -4.5829 H         1 <0>         0.1264
     26 H7         -4.4568    6.6519   -2.2974 H         1 <0>         0.1322
     27 H8         -2.5014    7.0850   -0.8669 H         1 <0>         0.1582
     28 H9          0.0809    5.8022   -4.0256 H         1 <0>         0.1279
     29 H10         0.7985    7.1738   -1.9064 H         1 <0>         0.4299
     30 H11        -2.1712    4.3332    0.0457 H         1 <0>         0.1639
     31 H12        -2.1620    1.8480    0.0224 H         1 <0>         0.1601
     32 H13         2.0970    4.2307    0.0051 H         1 <0>         0.1841
@<TRIPOS>BOND
     1    1    2 1
     2    1   20 1
     3    1   21 1
     4    1   22 1
     5    2    3 1
     6    2   23 1
     7    2   24 1
     8    3    8 ar
     9    3    4 ar
    10    4    5 ar
    11    4   25 1
    12    5    6 ar
    13    5   26 1
    14    6    7 ar
    15    6   27 1
    16    7    8 ar
    17    7    9 1
    18    8   28 1
    19    9   10 1
    20    9   29 1
    21   10   11 2
    22   10   12 2
    23   10   13 1
    24   13   18 ar
    25   13   14 ar
    26   14   15 ar
    27   14   30 1
    28   15   16 ar
    29   15   31 1
    30   16   17 ar
    31   16   19 1
    32   17   18 ar
    33   18   32 1
@<TRIPOS>MOLECULE
ZINC00116263
   35    37     0     0     0
SMALL
USER_CHARGES

@<TRIPOS>ATOM
      1 C1          0.0116    1.6856   -0.0307 C.3       1 <0>        -0.1011
      2 C2          0.0317    0.1791   -0.0640 C.2       1 <0>        -0.0639
      3 C3          0.0492   -0.5095   -1.2195 C.2       1 <0>        -0.2483
      4 S1          0.0684   -2.2071   -0.6869 S.3       1 <0>         0.2782
      5 C4          0.0537   -1.9960    0.9775 C.2       1 <0>         0.0410
      6 C5          0.0395   -0.6150    1.1439 C.2       1 <0>        -0.2554
      7 C6          0.0278    0.0014    2.4718 C.2       1 <0>         0.4642
      8 O1         -1.0265    0.1619    3.0591 O.2       1 <0>        -0.4391
      9 C7          1.2969    0.4291    3.0998 C.ar      1 <0>        -0.1678
     10 C8          2.4940    0.3483    2.3867 C.ar      1 <0>        -0.0623
     11 C9          3.6741    0.7487    2.9783 C.ar      1 <0>        -0.1335
     12 C10         3.6728    1.2296    4.2757 C.ar      1 <0>        -0.0852
     13 C11         2.4896    1.3119    4.9883 C.ar      1 <0>        -0.1326
     14 C12         1.3017    0.9205    4.4063 C.ar      1 <0>        -0.0626
     15 N1          0.0599   -2.9711    1.9588 N.am      1 <0>        -0.6132
     16 C13        -0.0252   -4.2719    1.6167 C.2       1 <0>         0.6042
     17 O2         -0.2025   -4.5851    0.4541 O.2       1 <0>        -0.4784
     18 C14         0.0959   -5.3096    2.6450 C.2       1 <0>        -0.0930
     19 C15         0.1291   -6.6573    2.4253 C.2       1 <0>        -0.0966
     20 C16         0.2525   -7.2682    3.6828 C.2       1 <0>        -0.2254
     21 C17         0.2887   -6.2795    4.6035 C.2       1 <0>         0.0109
     22 O3          0.2000   -5.1007    3.9738 O.3       1 <0>        -0.1656
     23 H1          1.0343    2.0625   -0.0204 H         1 <0>         0.0750
     24 H2         -0.5053    2.0616   -0.9136 H         1 <0>         0.0758
     25 H3         -0.5088    2.0223    0.8659 H         1 <0>         0.0630
     26 H4          0.0512   -0.1243   -2.2284 H         1 <0>         0.1902
     27 H5          2.4964   -0.0272    1.3740 H         1 <0>         0.1302
     28 H6          4.6012    0.6864    2.4277 H         1 <0>         0.1299
     29 H7          4.5994    1.5419    4.7343 H         1 <0>         0.1287
     30 H8          2.4955    1.6875    6.0009 H         1 <0>         0.1305
     31 H9          0.3781    0.9900    4.9618 H         1 <0>         0.1334
     32 H10         0.1255   -2.7186    2.8931 H         1 <0>         0.4233
     33 H11         0.0713   -7.1562    1.4692 H         1 <0>         0.1663
     34 H12         0.3075   -8.3289    3.8781 H         1 <0>         0.1631
     35 H13         0.3791   -6.4171    5.6709 H         1 <0>         0.2160
@<TRIPOS>BOND
     1    1    2 1
     2    1   23 1
     3    1   24 1
     4    1   25 1
     5    2    6 1
     6    2    3 2
     7    3    4 1
     8    3   26 1
     9    4    5 1
    10    5    6 2
    11    5   15 1
    12    6    7 1
    13    7    8 2
    14    7    9 1
    15    9   14 ar
    16    9   10 ar
    17   10   11 ar
    18   10   27 1
    19   11   12 ar
    20   11   28 1
    21   12   13 ar
    22   12   29 1
    23   13   14 ar
    24   13   30 1
    25   14   31 1
    26   15   16 am
    27   15   32 1
    28   16   17 2
    29   16   18 1
    30   18   22 1
    31   18   19 2
    32   19   20 1
    33   19   33 1
    34   20   21 2
    35   20   34 1
    36   21   22 1
    37   21   35 1
@<TRIPOS>MOLECULE
ZINC45005139
   43    45     0     0     0
SMALL
USER_CHARGES

@<TRIPOS>ATOM
      1 C1          0.0050    1.6226    0.2584 C.3       1 <0>        -0.1733
      2 C2          0.0059    0.0957    0.1610 C.3       1 <0>         0.0046
      3 H1          0.5494   -0.3221    1.0085 H         1 <0>         0.1347
      4 C3          0.6853   -0.3319   -1.1415 C.3       1 <0>         0.1024
      5 N1          2.0821    0.1097   -1.1315 N.pl3     1 <0>        -0.4926
      6 C4          3.1719   -0.5900   -0.6670 C.2       1 <0>         0.1438
      7 N2          4.2250    0.1724   -0.8481 N.2       1 <0>        -0.2551
      8 N3          3.8737    1.2852   -1.3864 N.2       1 <0>        -0.3264
      9 C5          2.5746    1.2993   -1.5867 C.2       1 <0>         0.3738
     10 S1          1.6421    2.6104   -2.3050 S.3       1 <0>        -0.7720
     11 C6          3.1592   -1.9448   -0.0755 C.ar      1 <0>         0.0209
     12 C7          1.9663   -2.4902    0.4016 C.ar      1 <0>        -0.1505
     13 C8          1.9614   -3.7550    0.9525 C.ar      1 <0>        -0.1160
     14 C9          3.1355   -4.4824    1.0330 C.ar      1 <0>        -0.1197
     15 C10         4.3215   -3.9476    0.5619 C.ar      1 <0>        -0.1041
     16 C11         4.3391   -2.6864    0.0031 C.ar      1 <0>        -0.0844
     17 N4         -1.3781   -0.3967    0.1760 N.4       1 <0>        -0.3755
     18 C12        -2.0593    0.0992    1.3779 C.3       1 <0>        -0.0124
     19 C13        -3.5239   -0.3434    1.3579 C.3       1 <0>        -0.1435
     20 C14        -3.5888   -1.8732    1.3269 C.3       1 <0>        -0.1373
     21 C15        -2.8119   -2.3827    0.1096 C.3       1 <0>        -0.1419
     22 C16        -1.3736   -1.8645    0.1759 C.3       1 <0>        -0.0217
     23 H2          1.0319    1.9879    0.2473 H         1 <0>         0.1133
     24 H3         -0.5385    2.0404   -0.5890 H         1 <0>         0.0991
     25 H4         -0.4790    1.9272    1.1863 H         1 <0>         0.0709
     26 H5          0.6481   -1.4176   -1.2313 H         1 <0>         0.1016
     27 H6          0.1672    0.1206   -1.9870 H         1 <0>         0.1204
     28 H7          1.0492   -1.9231    0.3400 H         1 <0>         0.1084
     29 H8          1.0390   -4.1781    1.3220 H         1 <0>         0.1218
     30 H9          3.1264   -5.4718    1.4658 H         1 <0>         0.1258
     31 H10         5.2346   -4.5204    0.6280 H         1 <0>         0.1311
     32 H11         5.2646   -2.2718   -0.3684 H         1 <0>         0.1380
     33 H12        -1.5704   -0.3042    2.2646 H         1 <0>         0.1260
     34 H13        -2.0095    1.1878    1.4001 H         1 <0>         0.1370
     35 H14        -4.0275    0.0242    2.2519 H         1 <0>         0.1101
     36 H15        -4.0139    0.0596    0.4716 H         1 <0>         0.0881
     37 H16        -3.1445   -2.2753    2.2374 H         1 <0>         0.0804
     38 H17        -4.6285   -2.1925    1.2555 H         1 <0>         0.0921
     39 H18        -2.8065   -3.4727    0.1114 H         1 <0>         0.1109
     40 H19        -3.2871   -2.0219   -0.8026 H         1 <0>         0.0889
     41 H20        -0.8176   -2.2256   -0.6893 H         1 <0>         0.1295
     42 H21        -0.8993   -2.2261    1.0882 H         1 <0>         0.1292
     43 H22        -1.8617   -0.0628   -0.6442 H         1 <0>         0.4233
@<TRIPOS>BOND
     1    1    2 1
     2    1   23 1
     3    1   24 1
     4    1   25 1
     5    2    3 1
     6    2    4 1
     7    2   17 1
     8    4   26 1
     9    4   27 1
    10    4    5 1
    11    5    9 1
    12    5    6 1
    13    6   11 1
    14    6    7 2
    15    7    8 1
    16    8    9 2
    17    9   10 1
    18   11   16 ar
    19   11   12 ar
    20   12   13 ar
    21   12   28 1
    22   13   14 ar
    23   13   29 1
    24   14   15 ar
    25   14   30 1
    26   15   16 ar
    27   15   31 1
    28   16   32 1
    29   17   22 1
    30   17   18 1
    31   17   43 1
    32   18   19 1
    33   18   33 1
    34   18   34 1
    35   19   20 1
    36   19   35 1
    37   19   36 1
    38   20   21 1
    39   20   37 1
    40   20   38 1
    41   21   22 1
    42   21   39 1
    43   21   40 1
    44   22   41 1
    45   22   42 1
@<TRIPOS>MOLECULE
ZINC57654330
   34    35     0     0     0
SMALL
USER_CHARGES

@<TRIPOS>ATOM
      1 C1          1.0970   -0.4571    0.7592 C.ar      1 <0>        -0.0477
      2 C2          2.2776    0.2514    0.7436 C.ar      1 <0>        -0.1236
      3 C3          2.3808    1.4178   -0.0072 C.ar      1 <0>         0.1760
      4 C4          1.2925    1.8732   -0.7443 C.ar      1 <0>        -0.1467
      5 C5          0.1086    1.1702   -0.7331 C.ar      1 <0>        -0.0477
      6 C6          0.0015   -0.0028    0.0194 C.ar      1 <0>        -0.0448
      7 C7         -1.2278   -0.7371    0.0329 C.1       1 <0>         0.2520
      8 N1         -2.2030   -1.3197    0.0435 N.1       1 <0>        -0.4142
      9 N2          3.5789    2.1332   -0.0207 N.am      1 <0>        -0.6726
     10 C8          4.7547    1.4802    0.0663 C.2       1 <0>         0.5113
     11 O1          4.7768    0.2676    0.0598 O.2       1 <0>        -0.5050
     12 C9          6.0419    2.2567    0.1718 C.3       1 <0>        -0.1340
     13 C10         7.2193    1.2833    0.2567 C.3       1 <0>         0.0713
     14 H1          7.0599    0.5917    1.0840 H         1 <0>         0.1337
     15 C11         7.3226    0.5272   -1.0020 C.1       1 <0>         0.2083
     16 N3          7.4023   -0.0563   -1.9735 N.1       1 <0>        -0.4111
     17 C12         8.4934    2.0548    0.4853 C.ar      1 <0>        -0.0891
     18 C13         8.9024    3.0017   -0.4352 C.ar      1 <0>        -0.0929
     19 C14        10.0709    3.7096   -0.2261 C.ar      1 <0>        -0.1068
     20 C15        10.8313    3.4705    0.9047 C.ar      1 <0>        -0.0271
     21 C16        10.4215    2.5228    1.8255 C.ar      1 <0>        -0.1073
     22 C17         9.2499    1.8195    1.6182 C.ar      1 <0>        -0.0862
     23 Cl1        12.2994    4.3589    1.1677 Cl        1 <0>        -0.0628
     24 H2          1.0189   -1.3650    1.3388 H         1 <0>         0.1378
     25 H3          3.1243   -0.0988    1.3152 H         1 <0>         0.1458
     26 H4          1.3762    2.7794   -1.3258 H         1 <0>         0.1383
     27 H5         -0.7360    1.5245   -1.3053 H         1 <0>         0.1385
     28 H6          3.5655    3.1004   -0.0926 H         1 <0>         0.4170
     29 H7          6.1570    2.8903   -0.7077 H         1 <0>         0.1113
     30 H8          6.0190    2.8782    1.0669 H         1 <0>         0.1272
     31 H9          8.3089    3.1880   -1.3181 H         1 <0>         0.1330
     32 H10        10.3905    4.4491   -0.9455 H         1 <0>         0.1379
     33 H11        11.0149    2.3354    2.7083 H         1 <0>         0.1394
     34 H12         8.9274    1.0830    2.3393 H         1 <0>         0.1407
@<TRIPOS>BOND
     1    1    6 ar
     2    1    2 ar
     3    1   24 1
     4    2    3 ar
     5    2   25 1
     6    3    4 ar
     7    3    9 1
     8    4    5 ar
     9    4   26 1
    10    5    6 ar
    11    5   27 1
    12    6    7 1
    13    7    8 3
    14    9   10 am
    15    9   28 1
    16   10   11 2
    17   10   12 1
    18   12   13 1
    19   12   29 1
    20   12   30 1
    21   13   14 1
    22   13   15 1
    23   13   17 1
    24   15   16 3
    25   17   22 ar
    26   17   18 ar
    27   18   19 ar
    28   18   31 1
    29   19   20 ar
    30   19   32 1
    31   20   21 ar
    32   20   23 1
    33   21   22 ar
    34   21   33 1
    35   22   34 1
@<TRIPOS>MOLECULE
ZINC67498611
   38    40     0     0     0
SMALL
USER_CHARGES

@<TRIPOS>ATOM
      1 C1         -0.0184    1.5028    0.0103 C.3       1 <0>        -0.1170
      2 C2          0.0021   -0.0041    0.0020 C.ar      1 <0>        -0.0753
      3 C3          0.0057   -0.6864   -1.2014 C.ar      1 <0>        -0.1292
      4 C4          0.0239   -2.0660   -1.2155 C.ar      1 <0>        -0.0947
      5 C5          0.0392   -2.7726   -0.0132 C.ar      1 <0>        -0.0536
      6 C6          0.0359   -2.0792    1.1967 C.ar      1 <0>        -0.0499
      7 C7          0.0229   -0.6994    1.1979 C.ar      1 <0>        -0.1248
      8 C8          0.0583   -4.2540   -0.0214 C.2       1 <0>         0.0155
      9 C9         -0.8285   -5.0034   -0.7774 C.2       1 <0>        -0.1728
     10 C10        -0.7510   -6.3523   -0.7344 C.2       1 <0>        -0.2148
     11 S1          0.5151   -6.6683    0.3225 S.3       1 <0>         0.2092
     12 C11         0.9764   -4.9953    0.7289 C.2       1 <0>        -0.2593
     13 C12         2.0377   -4.5212    1.6174 C.2       1 <0>         0.6086
     14 O1          2.2086   -3.3266    1.7782 O.2       1 <0>        -0.5071
     15 N1          2.8262   -5.4069    2.2578 N.am      1 <0>        -0.7236
     16 C13         3.8890   -4.9322    3.1475 C.3       1 <0>         0.1970
     17 C14         4.6181   -6.1135    3.7340 C.2       1 <0>         0.0864
     18 C15         5.8044   -6.6819    3.2364 C.2       1 <0>        -0.2817
     19 C16         6.1396   -7.7155    4.0322 C.2       1 <0>         0.0793
     20 O2          5.2143   -7.8115    4.9991 O.3       1 <0>        -0.0719
     21 N2          4.2627   -6.7829    4.7938 N.2       1 <0>        -0.3003
     22 C17         7.3426   -8.6078    3.8657 C.3       1 <0>        -0.0913
     23 H1          1.0042    1.8801    0.0026 H         1 <0>         0.0714
     24 H2         -0.5455    1.8639   -0.8728 H         1 <0>         0.0663
     25 H3         -0.5286    1.8543    0.9071 H         1 <0>         0.0666
     26 H4         -0.0062   -0.1381   -2.1318 H         1 <0>         0.1226
     27 H5          0.0260   -2.5976   -2.1556 H         1 <0>         0.1208
     28 H6          0.0477   -2.6209    2.1310 H         1 <0>         0.1201
     29 H7          0.0244   -0.1612    2.1342 H         1 <0>         0.1221
     30 H8         -1.5713   -4.5168   -1.3921 H         1 <0>         0.1420
     31 H9         -1.3660   -7.0667   -1.2615 H         1 <0>         0.1925
     32 H10         2.6901   -6.3587    2.1297 H         1 <0>         0.4024
     33 H11         4.5890   -4.3175    2.5816 H         1 <0>         0.1024
     34 H12         3.4522   -4.3393    3.9511 H         1 <0>         0.0959
     35 H13         6.3513   -6.3479    2.3670 H         1 <0>         0.1630
     36 H14         8.1847   -8.1889    4.4165 H         1 <0>         0.0972
     37 H15         7.1142   -9.6014    4.2515 H         1 <0>         0.0887
     38 H16         7.5989   -8.6787    2.8086 H         1 <0>         0.0976
@<TRIPOS>BOND
     1    1    2 1
     2    1   23 1
     3    1   24 1
     4    1   25 1
     5    2    7 ar
     6    2    3 ar
     7    3    4 ar
     8    3   26 1
     9    4    5 ar
    10    4   27 1
    11    5    6 ar
    12    5    8 1
    13    6    7 ar
    14    6   28 1
    15    7   29 1
    16    8   12 2
    17    8    9 1
    18    9   10 2
    19    9   30 1
    20   10   11 1
    21   10   31 1
    22   11   12 1
    23   12   13 1
    24   13   14 2
    25   13   15 am
    26   15   16 1
    27   15   32 1
    28   16   17 1
    29   16   33 1
    30   16   34 1
    31   17   21 2
    32   17   18 1
    33   18   19 2
    34   18   35 1
    35   19   20 1
    36   19   22 1
    37   20   21 1
    38   22   36 1
    39   22   37 1
    40   22   38 1
@<TRIPOS>MOLECULE
ZINC19772638
   21    23     0     0     0
SMALL
USER_CHARGES
5-bromopyrido[3,2-e][1,3]benzothiazol-2-amine
@<TRIPOS>ATOM
      1 C1         -3.4771   -1.3633    0.0286 C.ar      1 <0>        -0.1801
      2 C2         -2.4544   -0.4527    0.0234 C.ar      1 <0>        -0.0328
      3 C3         -1.1404   -0.9382    0.0074 C.ar      1 <0>        -0.0706
      4 C4          0.0021   -0.0041    0.0020 C.ar      1 <0>         0.1884
      5 C5          1.2747   -0.6045   -0.0134 C.ar      1 <0>        -0.1994
      6 C6          1.4601   -1.9736   -0.0225 C.ar      1 <0>         0.0126
      7 C7          0.4046   -2.8326   -0.0166 C.ar      1 <0>        -0.0891
      8 C8         -0.9130   -2.3311   -0.0009 C.ar      1 <0>         0.1717
      9 N1         -1.9561   -3.1699    0.0049 N.ar      1 <0>        -0.4649
     10 C9         -3.1897   -2.7239    0.0190 C.ar      1 <0>         0.1397
     11 Br1         0.7052   -4.6995   -0.0289 Br        1 <0>        -0.0152
     12 S1          2.3558    0.8065   -0.0155 S.3       1 <0>         0.0185
     13 C10         1.0822    2.0606    0.0028 C.2       1 <0>         0.4282
     14 N2         -0.0161    1.3363    0.0094 N.2       1 <0>        -0.5941
     15 N3          1.2164    3.4349    0.0089 N.pl3     1 <0>        -0.8088
     16 H1         -4.5031   -1.0261    0.0404 H         1 <0>         0.1426
     17 H2         -2.6548    0.6085    0.0313 H         1 <0>         0.1463
     18 H3          2.4644   -2.3707   -0.0342 H         1 <0>         0.1443
     19 H4         -4.0044   -3.4329    0.0228 H         1 <0>         0.1651
     20 H5          0.3218    4.0748    0.0205 H         1 <0>         0.4464
     21 H6          2.2179    3.8898    0.0022 H         1 <0>         0.4513
@<TRIPOS>BOND
     1    1   10 ar
     2    1    2 ar
     3    1   16 1
     4    2    3 ar
     5    2   17 1
     6    3    8 ar
     7    3    4 ar
     8    4   14 1
     9    4    5 ar
    10    5    6 ar
    11    5   12 1
    12    6    7 ar
    13    6   18 1
    14    7    8 ar
    15    7   11 1
    16    8    9 ar
    17    9   10 ar
    18   10   19 1
    19   12   13 1
    20   13   14 2
    21   13   15 1
    22   15   20 1
    23   15   21 1
@<TRIPOS>MOLECULE
ZINC34976054
   32    33     0     0     0
SMALL
USER_CHARGES

@<TRIPOS>ATOM
      1 C1         -0.4089    1.1498   -0.6282 C.3       1 <0>        -0.1182
      2 C2         -0.3076   -0.3336   -0.3828 C.ar      1 <0>        -0.0621
      3 C3         -0.2233   -1.2050   -1.4537 C.ar      1 <0>        -0.1293
      4 C4         -0.1308   -2.5647   -1.2346 C.ar      1 <0>        -0.0433
      5 C5         -0.1221   -3.0587    0.0679 C.ar      1 <0>        -0.0477
      6 C6         -0.2069   -2.1766    1.1428 C.ar      1 <0>        -0.0426
      7 C7         -0.2937   -0.8184    0.9125 C.ar      1 <0>        -0.1302
      8 C8         -0.1985   -2.7039    2.5545 C.3       1 <0>        -0.1207
      9 C9         -0.0234   -4.5202    0.3096 C.2       1 <0>         0.1924
     10 C10         0.9803   -5.1716    1.0565 C.2       1 <0>        -0.3302
     11 C11         0.7158   -6.5025    1.0415 C.2       1 <0>         0.3494
     12 O1         -0.4020   -6.6962    0.3210 O.3       1 <0>        -0.1095
     13 N1         -0.8581   -5.4336   -0.1294 N.2       1 <0>        -0.3214
     14 N2          1.4653   -7.4871    1.6591 N.pl3     1 <0>        -0.8169
     15 C12         2.1421   -4.5067    1.7488 C.3       1 <0>        -0.0681
     16 C13        -0.0400   -3.5130   -2.4023 C.3       1 <0>        -0.1277
     17 H1          0.5917    1.5801   -0.6712 H         1 <0>         0.0739
     18 H2         -0.9217    1.3276   -1.5734 H         1 <0>         0.0687
     19 H3         -0.9698    1.6148    0.1825 H         1 <0>         0.0688
     20 H4         -0.2301   -0.8209   -2.4630 H         1 <0>         0.1276
     21 H5         -0.3551   -0.1334    1.7452 H         1 <0>         0.1280
     22 H6          0.8176   -2.6729    2.9479 H         1 <0>         0.0792
     23 H7         -0.8478   -2.0876    3.1764 H         1 <0>         0.0695
     24 H8         -0.5592   -3.7325    2.5603 H         1 <0>         0.0668
     25 H9          2.2612   -7.2485    2.1596 H         1 <0>         0.4254
     26 H10         1.1951   -8.4162    1.5918 H         1 <0>         0.4119
     27 H11         1.8895   -4.3303    2.7943 H         1 <0>         0.0617
     28 H12         3.0179   -5.1530    1.6907 H         1 <0>         0.0559
     29 H13         2.3593   -3.5559    1.2620 H         1 <0>         0.0671
     30 H14         1.0068   -3.6686   -2.6633 H         1 <0>         0.0720
     31 H15        -0.4927   -4.4669   -2.1317 H         1 <0>         0.0778
     32 H16        -0.5683   -3.0893   -3.2563 H         1 <0>         0.0716
@<TRIPOS>BOND
     1    1    2 1
     2    1   17 1
     3    1   18 1
     4    1   19 1
     5    2    7 ar
     6    2    3 ar
     7    3    4 ar
     8    3   20 1
     9    4    5 ar
    10    4   16 1
    11    5    6 ar
    12    5    9 1
    13    6    7 ar
    14    6    8 1
    15    7   21 1
    16    8   22 1
    17    8   23 1
    18    8   24 1
    19    9   13 2
    20    9   10 1
    21   10   11 2
    22   10   15 1
    23   11   12 1
    24   11   14 1
    25   12   13 1
    26   14   25 1
    27   14   26 1
    28   15   27 1
    29   15   28 1
    30   15   29 1
    31   16   30 1
    32   16   31 1
    33   16   32 1
@<TRIPOS>MOLECULE
ZINC43740391
   37    39     0     0     0
SMALL
USER_CHARGES

@<TRIPOS>ATOM
      1 C1         -0.0184    1.5069    0.0103 C.3       1 <0>        -0.1299
      2 C2          1.3454    2.1729    0.0009 C.3       1 <0>        -0.1151
      3 C3          2.4742    1.2120    0.3297 C.3       1 <0>        -0.1335
      4 C4          2.0949    0.2198    1.4215 C.3       1 <0>         0.1652
      5 C5          0.9576   -0.6667    0.9780 C.3       1 <0>        -0.0712
      6 H1          1.4751   -1.4548    0.3383 H         1 <0>         0.0717
      7 C6          0.0021   -0.0041    0.0020 C.3       1 <0>        -0.1017
      8 C7          0.2490   -1.4855    2.0297 C.3       1 <0>        -0.0928
      9 C8          0.4058   -1.0950    3.4880 C.3       1 <0>        -0.0791
     10 H2          0.3640   -1.9782    4.1392 H         1 <0>         0.0899
     11 C9         -0.7296   -0.1217    3.8654 C.3       1 <0>        -0.1114
     12 C10        -0.6828    1.0386    2.8722 C.3       1 <0>        -0.1364
     13 C11         0.6550    1.7589    2.8862 C.3       1 <0>        -0.1139
     14 C12         1.8728    0.8631    2.7821 C.3       1 <0>        -0.0345
     15 H3          2.7780    1.4182    3.0889 H         1 <0>         0.0919
     16 C13         1.6875   -0.3239    3.7264 C.2       1 <0>         0.1582
     17 N1          2.5372   -0.6244    4.6279 N.2       1 <0>        -0.3360
     18 O1          2.3073   -1.7350    5.4757 O.3       1 <0>        -0.4168
     19 O2          3.2568   -0.6512    1.5768 O.3       1 <0>        -0.5725
     20 H4         -0.6122    1.8983    0.8391 H         1 <0>         0.0774
     21 H5         -0.5576    1.8422   -0.9016 H         1 <0>         0.0559
     22 H6          1.5232    2.5829   -1.0094 H         1 <0>         0.0594
     23 H7          1.3648    3.0260    0.6807 H         1 <0>         0.0685
     24 H8          2.7537    0.6586   -0.5748 H         1 <0>         0.0752
     25 H9          3.3541    1.7816    0.6519 H         1 <0>         0.0675
     26 H10         0.2345   -0.3586   -1.0153 H         1 <0>         0.0619
     27 H11        -1.0181   -0.3721    0.2144 H         1 <0>         0.0672
     28 H12        -0.8322   -1.5007    1.7894 H         1 <0>         0.0695
     29 H13         0.5703   -2.5414    1.9193 H         1 <0>         0.0574
     30 H14        -1.6853   -0.6346    3.7927 H         1 <0>         0.0729
     31 H15        -0.5704    0.2464    4.8754 H         1 <0>         0.0620
     32 H16        -0.9135    0.6479    1.8835 H         1 <0>         0.0883
     33 H17        -1.4715    1.7540    3.1427 H         1 <0>         0.0635
     34 H18         0.6652    2.5295    2.1132 H         1 <0>         0.0893
     35 H19         0.7215    2.3148    3.8453 H         1 <0>         0.0590
     36 H20         3.0062   -1.8839    6.1272 H         1 <0>         0.4005
     37 H21         4.0654   -0.1865    1.8324 H         1 <0>         0.3724
@<TRIPOS>BOND
     1    1    7 1
     2    1    2 1
     3    1   20 1
     4    1   21 1
     5    2    3 1
     6    2   22 1
     7    2   23 1
     8    3    4 1
     9    3   24 1
    10    3   25 1
    11    4   14 1
    12    4    5 1
    13    4   19 1
    14    5    6 1
    15    5    7 1
    16    5    8 1
    17    7   26 1
    18    7   27 1
    19    8    9 1
    20    8   28 1
    21    8   29 1
    22    9   10 1
    23    9   16 1
    24    9   11 1
    25   11   12 1
    26   11   30 1
    27   11   31 1
    28   12   13 1
    29   12   32 1
    30   12   33 1
    31   13   14 1
    32   13   34 1
    33   13   35 1
    34   14   15 1
    35   14   16 1
    36   16   17 2
    37   17   18 1
    38   18   36 1
    39   19   37 1
@<TRIPOS>MOLECULE
ZINC58432923
   29    31     0     0     0
SMALL
USER_CHARGES

@<TRIPOS>ATOM
      1 C1         -0.0164    1.3567    0.0095 C.ar      1 <0>        -0.1188
      2 C2          1.1685    2.0906    0.0021 C.ar      1 <0>        -0.1075
      3 C3          2.3785    1.4679   -0.0132 C.ar      1 <0>        -0.1147
      4 C4          2.4378    0.0637   -0.0214 C.ar      1 <0>        -0.0382
      5 C5          1.2328   -0.6827   -0.0134 C.ar      1 <0>        -0.0533
      6 C6          0.0021   -0.0041    0.0020 C.ar      1 <0>        -0.1010
      7 C7          1.2920   -2.0865   -0.0210 C.ar      1 <0>        -0.1003
      8 C8          2.5022   -2.7094   -0.0359 C.ar      1 <0>        -0.1165
      9 C9          3.6867   -1.9757   -0.0433 C.ar      1 <0>        -0.0794
     10 C10         3.6681   -0.6146   -0.0367 C.ar      1 <0>        -0.0706
     11 C11         4.9603    0.1606   -0.0459 C.3       1 <0>         0.2269
     12 H1          4.8331    1.0722   -0.6299 H         1 <0>         0.1143
     13 C12         5.3414    0.5186    1.3675 C.2       1 <0>         0.0153
     14 N1          5.8435   -0.2567    2.2960 N.2       1 <0>        -0.5093
     15 C13         6.1276    0.2067    3.4968 C.2       1 <0>         0.0336
     16 C14         5.8759    1.5212    3.7245 C.2       1 <0>        -0.2272
     17 S1          5.2319    2.0133    2.1333 S.3       1 <0>         0.1088
     18 N2          6.0201   -0.6611   -0.6457 N.3       1 <0>        -0.8175
     19 H2         -0.9634    1.8756    0.0259 H         1 <0>         0.1246
     20 H3          1.1258    3.1698    0.0084 H         1 <0>         0.1249
     21 H4          3.2883    2.0497   -0.0195 H         1 <0>         0.1201
     22 H5         -0.9241   -0.5595    0.0082 H         1 <0>         0.1284
     23 H6          0.3820   -2.6682   -0.0147 H         1 <0>         0.1288
     24 H7          2.5450   -3.7886   -0.0417 H         1 <0>         0.1263
     25 H8          4.6338   -2.4947   -0.0548 H         1 <0>         0.1270
     26 H9          6.5414   -0.4303    4.2646 H         1 <0>         0.1736
     27 H10         6.0268    2.1076    4.6188 H         1 <0>         0.1975
     28 H11         6.8813   -0.1409   -0.7223 H         1 <0>         0.3499
     29 H12         6.1573   -1.5126   -0.1221 H         1 <0>         0.3543
@<TRIPOS>BOND
     1    1    6 ar
     2    1    2 ar
     3    1   19 1
     4    2    3 ar
     5    2   20 1
     6    3    4 ar
     7    3   21 1
     8    4   10 ar
     9    4    5 ar
    10    5    6 ar
    11    5    7 ar
    12    6   22 1
    13    7    8 ar
    14    7   23 1
    15    8    9 ar
    16    8   24 1
    17    9   10 ar
    18    9   25 1
    19   10   11 1
    20   11   12 1
    21   11   13 1
    22   11   18 1
    23   13   17 1
    24   13   14 2
    25   14   15 1
    26   15   16 2
    27   15   26 1
    28   16   17 1
    29   16   27 1
    30   18   28 1
    31   18   29 1
@<TRIPOS>MOLECULE
ZINC09136750
   36    38     0     0     0
SMALL
USER_CHARGES

@<TRIPOS>ATOM
      1 C1         -0.0187    1.5258    0.0104 C.3       1 <0>        -0.1240
      2 C2          1.4167    2.0555   -0.0004 C.3       1 <0>        -0.1141
      3 C3          2.1319    1.5634   -1.2604 C.3       1 <0>        -0.1376
      4 C4          2.1502    0.0345   -1.2726 C.3       1 <0>         0.4069
      5 C5          0.7171   -0.4975   -1.2576 C.3       1 <0>        -0.1339
      6 C6          0.0021   -0.0041    0.0020 C.3       1 <0>        -0.1159
      7 N1          2.8704   -0.4576   -0.0939 N.pl3     1 <0>        -0.7398
      8 C7          4.2462   -0.3865   -0.0831 C.2       1 <0>         0.2225
      9 C8          4.9060   -0.5037   -1.2475 C.2       1 <0>        -0.2759
     10 C9          6.4089   -0.4852   -1.3370 C.3       1 <0>        -0.0421
     11 C10         7.0155    0.1329   -0.0788 C.3       1 <0>        -0.1216
     12 C11         6.4081   -0.5646    1.1443 C.3       1 <0>        -0.1165
     13 C12         4.9339   -0.1733    1.2369 C.3       1 <0>        -0.0910
     14 C13         4.1684   -0.6391   -2.4545 C.2       1 <0>         0.5681
     15 O1          4.7479   -0.9411   -3.4820 O.2       1 <0>        -0.5540
     16 N2          2.8391   -0.4386   -2.4770 N.am      1 <0>        -0.7409
     17 H1         -0.5289    1.8773    0.9072 H         1 <0>         0.0676
     18 H2         -0.5459    1.8869   -0.8726 H         1 <0>         0.0660
     19 H3          1.4019    3.1453    0.0068 H         1 <0>         0.0676
     20 H4          1.9444    1.6933    0.8819 H         1 <0>         0.0660
     21 H5          1.6054    1.9274   -2.1426 H         1 <0>         0.0769
     22 H6          3.1551    1.9389   -1.2674 H         1 <0>         0.0689
     23 H7          0.1872   -0.1388   -2.1401 H         1 <0>         0.0854
     24 H8          0.7341   -1.5873   -1.2623 H         1 <0>         0.0774
     25 H9          0.5301   -0.3651    0.8846 H         1 <0>         0.0632
     26 H10        -1.0205   -0.3814    0.0108 H         1 <0>         0.0734
     27 H11         2.3879   -0.8260    0.6627 H         1 <0>         0.4085
     28 H12         6.7749   -1.5059   -1.4482 H         1 <0>         0.0689
     29 H13         6.7099    0.1003   -2.2058 H         1 <0>         0.0687
     30 H14         8.0961   -0.0102   -0.0839 H         1 <0>         0.0706
     31 H15         6.7859    1.1979   -0.0456 H         1 <0>         0.0640
     32 H16         6.4950   -1.6453    1.0318 H         1 <0>         0.0699
     33 H17         6.9302   -0.2454    2.0463 H         1 <0>         0.0729
     34 H18         4.8578    0.8775    1.5162 H         1 <0>         0.0908
     35 H19         4.4473   -0.7830    1.9982 H         1 <0>         0.0794
     36 H20         2.3365   -0.6065   -3.2895 H         1 <0>         0.4038
@<TRIPOS>BOND
     1    1    6 1
     2    1    2 1
     3    1   17 1
     4    1   18 1
     5    2    3 1
     6    2   19 1
     7    2   20 1
     8    3    4 1
     9    3   21 1
    10    3   22 1
    11    4   16 1
    12    4    5 1
    13    4    7 1
    14    5    6 1
    15    5   23 1
    16    5   24 1
    17    6   25 1
    18    6   26 1
    19    7    8 1
    20    7   27 1
    21    8   13 1
    22    8    9 2
    23    9   10 1
    24    9   14 1
    25   10   11 1
    26   10   28 1
    27   10   29 1
    28   11   12 1
    29   11   30 1
    30   11   31 1
    31   12   13 1
    32   12   32 1
    33   12   33 1
    34   13   34 1
    35   13   35 1
    36   14   15 2
    37   14   16 am
    38   16   36 1
@<TRIPOS>MOLECULE
ZINC14986257
   21    21     0     0     0
SMALL
USER_CHARGES
ethyl 5-(bromomethyl)thiophene-2-carboxylate
@<TRIPOS>ATOM
      1 C1         -1.7386    5.9359    0.0430 C.3       1 <0>        -0.1542
      2 C2         -2.1559    4.4640    0.0370 C.3       1 <0>         0.0642
      3 O1         -0.9709    3.6250    0.0266 O.3       1 <0>        -0.3526
      4 C3         -1.1656    2.2901    0.0203 C.2       1 <0>         0.5544
      5 O2         -2.2957    1.8404    0.0235 O.2       1 <0>        -0.4922
      6 C4         -0.0167    1.3829    0.0096 C.2       1 <0>        -0.2296
      7 C5          0.0021   -0.0041    0.0020 C.2       1 <0>        -0.0575
      8 C6          1.2320   -0.6120   -0.0130 C.2       1 <0>        -0.1589
      9 C7          2.3527    0.1573   -0.0196 C.2       1 <0>        -0.1745
     10 S1          1.7241    1.7729   -0.0049 S.3       1 <0>         0.2156
     11 C8          3.7927   -0.2867   -0.0357 C.3       1 <0>        -0.0028
     12 Br1         4.4012   -0.4699   -1.8962 Br        1 <0>        -0.1288
     13 H1         -1.1496    6.1502   -0.8488 H         1 <0>         0.0684
     14 H2         -2.6282    6.5658    0.0508 H         1 <0>         0.0837
     15 H3         -1.1407    6.1405    0.9311 H         1 <0>         0.0683
     16 H4         -2.7538    4.2594   -0.8511 H         1 <0>         0.0742
     17 H5         -2.7449    4.2497    0.9288 H         1 <0>         0.0741
     18 H6         -0.9114   -0.5802    0.0080 H         1 <0>         0.1538
     19 H7          1.3089   -1.6892   -0.0192 H         1 <0>         0.1467
     20 H8          4.4070    0.4539    0.4763 H         1 <0>         0.1204
     21 H9          3.8825   -1.2470    0.4722 H         1 <0>         0.1272
@<TRIPOS>BOND
     1    1    2 1
     2    1   13 1
     3    1   14 1
     4    1   15 1
     5    2    3 1
     6    2   16 1
     7    2   17 1
     8    3    4 1
     9    4    5 2
    10    4    6 1
    11    6   10 1
    12    6    7 2
    13    7    8 1
    14    7   18 1
    15    8    9 2
    16    8   19 1
    17    9   10 1
    18    9   11 1
    19   11   12 1
    20   11   20 1
    21   11   21 1
@<TRIPOS>MOLECULE
ZINC37351076
   24    24     0     0     0
SMALL
USER_CHARGES

@<TRIPOS>ATOM
      1 C1         -0.0187    1.5258    0.0104 C.3       1 <0>        -0.1505
      2 C2          0.0021   -0.0041    0.0020 C.3       1 <0>        -0.1243
      3 C3          0.7182   -0.4975   -1.2568 C.3       1 <0>         0.0584
      4 O1          0.7376   -1.9263   -1.2646 O.3       1 <0>        -0.3663
      5 C4          1.3873   -2.4925   -2.4045 C.3       1 <0>         0.0208
      6 C5          1.3492   -3.9960   -2.3092 C.2       1 <0>         0.4220
      7 O2          0.8171   -4.5309   -1.3573 O.2       1 <0>        -0.3975
      8 C6          1.9315   -4.7824   -3.3256 C.2       1 <0>        -0.2689
      9 C7          1.9998   -6.1697   -3.4325 C.2       1 <0>        -0.0376
     10 C8          2.6371   -6.6483   -4.5501 C.2       1 <0>        -0.1711
     11 C9          3.1434   -5.7673   -5.4502 C.2       1 <0>        -0.2076
     12 S1          2.7651   -4.2599   -4.8124 S.3       1 <0>         0.2697
     13 Br1         1.2633   -7.3183   -2.1232 Br        1 <0>         0.0069
     14 H1          1.0039    1.9031    0.0027 H         1 <0>         0.0563
     15 H2         -0.5459    1.8868   -0.8726 H         1 <0>         0.0563
     16 H3         -0.5289    1.8773    0.9072 H         1 <0>         0.0631
     17 H4          0.5293   -0.3651    0.8851 H         1 <0>         0.0722
     18 H5         -1.0205   -0.3814    0.0098 H         1 <0>         0.0722
     19 H6          0.1910   -0.1364   -2.1398 H         1 <0>         0.0521
     20 H7          1.7408   -0.1202   -1.2645 H         1 <0>         0.0521
     21 H8          0.8740   -2.1729   -3.3114 H         1 <0>         0.0856
     22 H9          2.4238   -2.1566   -2.4361 H         1 <0>         0.0856
     23 H10         2.7347   -7.7117   -4.7110 H         1 <0>         0.1499
     24 H11         3.6671   -5.9857   -6.3692 H         1 <0>         0.2003
@<TRIPOS>BOND
     1    1    2 1
     2    1   14 1
     3    1   15 1
     4    1   16 1
     5    2    3 1
     6    2   17 1
     7    2   18 1
     8    3    4 1
     9    3   19 1
    10    3   20 1
    11    4    5 1
    12    5    6 1
    13    5   21 1
    14    5   22 1
    15    6    7 2
    16    6    8 1
    17    8   12 1
    18    8    9 2
    19    9   10 1
    20    9   13 1
    21   10   11 2
    22   10   23 1
    23   11   12 1
    24   11   24 1
@<TRIPOS>MOLECULE
ZINC41348098
   43    44     0     0     0
SMALL
USER_CHARGES

@<TRIPOS>ATOM
      1 C1         -0.0187    1.5258    0.0104 C.3       1 <0>        -0.1391
      2 C2          0.0021   -0.0041    0.0020 C.3       1 <0>        -0.0310
      3 C3          0.7421   -0.5109    1.2415 C.3       1 <0>        -0.1390
      4 C4         -1.4333   -0.5336    0.0129 C.3       1 <0>        -0.1453
      5 C5          0.7074   -0.4901   -1.2379 C.ar      1 <0>        -0.0694
      6 C6          0.0361   -1.2843   -2.1485 C.ar      1 <0>        -0.1186
      7 C7          0.6831   -1.7301   -3.2859 C.ar      1 <0>        -0.1114
      8 C8          2.0014   -1.3813   -3.5127 C.ar      1 <0>        -0.0785
      9 C9          2.6724   -0.5863   -2.6025 C.ar      1 <0>        -0.1059
     10 C10         2.0241   -0.1370   -1.4673 C.ar      1 <0>        -0.1131
     11 C11         2.7070   -1.8681   -4.7521 C.3       1 <0>        -0.0037
     12 H1          2.0234   -2.4766   -5.3442 H         1 <0>         0.0883
     13 C12         3.9209   -2.7087   -4.3510 C.3       1 <0>        -0.1044
     14 C13         4.5549   -3.2965   -5.5853 C.2       1 <0>         0.4564
     15 O1          4.0842   -3.0668   -6.6741 O.2       1 <0>        -0.4923
     16 O2          5.6426   -4.0754   -5.4750 O.3       1 <0>        -0.3580
     17 C14         6.1911   -4.5988   -6.6863 C.3       1 <0>         0.0341
     18 C15         3.1692   -0.6677   -5.5806 C.3       1 <0>        -0.1460
     19 C16         2.7905   -0.6445   -7.0628 C.3       1 <0>        -0.1514
     20 C17         2.0956    0.3009   -6.0807 C.3       1 <0>        -0.1788
     21 H2          1.0039    1.9031    0.0027 H         1 <0>         0.0568
     22 H3         -0.5459    1.8868   -0.8726 H         1 <0>         0.0562
     23 H4         -0.5289    1.8773    0.9072 H         1 <0>         0.0587
     24 H5          0.2319   -0.1594    2.1383 H         1 <0>         0.0587
     25 H6          0.7568   -1.6008    1.2356 H         1 <0>         0.0563
     26 H7          1.7647   -0.1336    1.2338 H         1 <0>         0.0569
     27 H8         -1.9605   -0.1726   -0.8702 H         1 <0>         0.0586
     28 H9         -1.4185   -1.6235    0.0069 H         1 <0>         0.0586
     29 H10        -1.9435   -0.1821    0.9097 H         1 <0>         0.0586
     30 H11        -0.9938   -1.5568   -1.9713 H         1 <0>         0.1258
     31 H12         0.1588   -2.3512   -3.9970 H         1 <0>         0.1196
     32 H13         3.7024   -0.3141   -2.7796 H         1 <0>         0.1194
     33 H14         2.5473    0.4872   -0.7580 H         1 <0>         0.1200
     34 H15         4.6453   -2.0780   -3.8356 H         1 <0>         0.1074
     35 H16         3.6027   -3.5130   -3.6877 H         1 <0>         0.1084
     36 H17         7.0642   -5.2093   -6.4557 H         1 <0>         0.1010
     37 H18         5.4425   -5.2106   -7.1896 H         1 <0>         0.0602
     38 H19         6.4851   -3.7756   -7.3375 H         1 <0>         0.0602
     39 H20         4.1353   -0.2476   -5.3010 H         1 <0>         0.0992
     40 H21         3.5076   -0.2090   -7.7587 H         1 <0>         0.0880
     41 H22         2.2121   -1.4843   -7.4477 H         1 <0>         0.0961
     42 H23         1.0601    0.0829   -5.8196 H         1 <0>         0.0919
     43 H24         2.3556    1.3582   -6.1305 H         1 <0>         0.0906
@<TRIPOS>BOND
     1    1    2 1
     2    1   21 1
     3    1   22 1
     4    1   23 1
     5    2    3 1
     6    2    4 1
     7    2    5 1
     8    3   24 1
     9    3   25 1
    10    3   26 1
    11    4   27 1
    12    4   28 1
    13    4   29 1
    14    5   10 ar
    15    5    6 ar
    16    6    7 ar
    17    6   30 1
    18    7    8 ar
    19    7   31 1
    20    8    9 ar
    21    8   11 1
    22    9   10 ar
    23    9   32 1
    24   10   33 1
    25   11   12 1
    26   11   13 1
    27   11   18 1
    28   13   14 1
    29   13   34 1
    30   13   35 1
    31   14   15 2
    32   14   16 1
    33   16   17 1
    34   17   36 1
    35   17   37 1
    36   17   38 1
    37   18   20 1
    38   18   19 1
    39   18   39 1
    40   19   20 1
    41   19   40 1
    42   19   41 1
    43   20   42 1
    44   20   43 1
@<TRIPOS>MOLECULE
ZINC58018288
   30    31     0     0     0
SMALL
USER_CHARGES

@<TRIPOS>ATOM
      1 C1         -0.0184    1.5028    0.0103 C.3       1 <0>        -0.2022
      2 C2          0.0021   -0.0041    0.0020 C.2       1 <0>         0.3952
      3 O1          0.0203   -0.6162    1.0493 O.2       1 <0>        -0.4594
      4 C3         -0.0001   -0.7306   -1.2723 C.ar      1 <0>        -0.1826
      5 C4         -0.0153   -0.0252   -2.4834 C.ar      1 <0>        -0.0494
      6 C5         -0.0168   -0.7050   -3.6670 C.ar      1 <0>        -0.1129
      7 C6         -0.0033   -2.0990   -3.6724 C.ar      1 <0>        -0.0657
      8 C7          0.0114   -2.8044   -2.4701 C.ar      1 <0>        -0.1513
      9 C8          0.0189   -2.1320   -1.2822 C.ar      1 <0>        -0.0366
     10 S1         -0.0053   -2.9717   -5.2031 S.3       1 <0>        -0.0309
     11 C9          0.0152   -4.7180   -4.7127 C.3       1 <0>        -0.1816
     12 C10         0.0151   -5.5858   -5.9447 C.2       1 <0>         0.4576
     13 O2          0.0026   -5.0757   -7.0468 O.2       1 <0>        -0.4266
     14 C11         0.0298   -6.9924   -5.8177 C.2       1 <0>        -0.3000
     15 C12         0.0381   -7.9634   -6.8149 C.2       1 <0>        -0.0451
     16 C13         0.0521   -9.2635   -6.3781 C.2       1 <0>        -0.1937
     17 C14         0.0568   -9.5123   -5.0431 C.2       1 <0>        -0.2072
     18 S2          0.0502   -7.9872   -4.3385 S.3       1 <0>         0.2333
     19 H1          1.0042    1.8801    0.0026 H         1 <0>         0.0991
     20 H2         -0.5455    1.8639   -0.8728 H         1 <0>         0.0869
     21 H3         -0.5286    1.8543    0.9071 H         1 <0>         0.0892
     22 H4         -0.0262    1.0547   -2.4800 H         1 <0>         0.1407
     23 H5         -0.0289   -0.1622   -4.6006 H         1 <0>         0.1369
     24 H6          0.0212   -3.8843   -2.4786 H         1 <0>         0.1284
     25 H7          0.0351   -2.6792   -0.3512 H         1 <0>         0.1374
     26 H8          0.9112   -4.9201   -4.1259 H         1 <0>         0.1259
     27 H9         -0.8686   -4.9375   -4.1136 H         1 <0>         0.1260
     28 H10         0.0334   -7.7096   -7.8646 H         1 <0>         0.1526
     29 H11         0.0589  -10.0787   -7.0865 H         1 <0>         0.1426
     30 H12         0.0671  -10.4718   -4.5474 H         1 <0>         0.1934
@<TRIPOS>BOND
     1    1    2 1
     2    1   19 1
     3    1   20 1
     4    1   21 1
     5    2    3 2
     6    2    4 1
     7    4    9 ar
     8    4    5 ar
     9    5    6 ar
    10    5   22 1
    11    6    7 ar
    12    6   23 1
    13    7    8 ar
    14    7   10 1
    15    8    9 ar
    16    8   24 1
    17    9   25 1
    18   10   11 1
    19   11   12 1
    20   11   26 1
    21   11   27 1
    22   12   13 2
    23   12   14 1
    24   14   18 1
    25   14   15 2
    26   15   16 1
    27   15   28 1
    28   16   17 2
    29   16   29 1
    30   17   18 1
    31   17   30 1
@<TRIPOS>MOLECULE
ZINC63046140
   31    31     0     0     0
SMALL
USER_CHARGES

@<TRIPOS>ATOM
      1 C1         -0.0187    1.5258    0.0104 C.3       1 <0>        -0.1534
      2 C2          0.0021   -0.0041    0.0020 C.3       1 <0>        -0.1154
      3 C3         -1.4333   -0.5336    0.0129 C.3       1 <0>        -0.0730
      4 C4         -1.4129   -2.0405    0.0046 C.ar      1 <0>         0.1785
      5 C5         -2.0841   -2.7575    0.9828 C.ar      1 <0>        -0.2039
      6 C6         -2.0370   -4.1416    0.9345 C.ar      1 <0>         0.1739
      7 N1         -1.3574   -4.7291   -0.0374 N.ar      1 <0>        -0.5210
      8 C7         -0.7312   -4.0148   -0.9507 C.ar      1 <0>         0.2968
      9 N2         -0.7585   -2.6970   -0.9397 N.ar      1 <0>        -0.5166
     10 C8         -2.7497   -4.9667    1.9749 C.3       1 <0>        -0.0405
     11 H1         -2.2690   -5.9415    2.0574 H         1 <0>         0.1121
     12 C9         -2.6857   -4.2505    3.3254 C.3       1 <0>        -0.1601
     13 C10        -4.2120   -5.1523    1.5648 C.3       1 <0>        -0.0387
     14 H2         -4.2575   -5.6625    0.6027 H         1 <0>         0.1087
     15 C11        -4.9355   -5.9900    2.6211 C.3       1 <0>        -0.1518
     16 Br1        -5.0791   -3.3942    1.4159 Br        1 <0>        -0.1538
     17 H3          1.0039    1.9031    0.0027 H         1 <0>         0.0575
     18 H4         -0.5459    1.8868   -0.8726 H         1 <0>         0.0564
     19 H5         -0.5289    1.8773    0.9072 H         1 <0>         0.0546
     20 H6          0.5123   -0.3556   -0.8948 H         1 <0>         0.0747
     21 H7          0.5293   -0.3651    0.8851 H         1 <0>         0.0594
     22 H8         -1.9435   -0.1821    0.9097 H         1 <0>         0.0832
     23 H9         -1.9605   -0.1726   -0.8702 H         1 <0>         0.0894
     24 H10        -2.6302   -2.2497    1.7640 H         1 <0>         0.1501
     25 H11        -0.1845   -4.5227   -1.7314 H         1 <0>         0.1966
     26 H12        -1.6440   -4.1183    3.6176 H         1 <0>         0.0656
     27 H13        -3.1665   -3.2757    3.2429 H         1 <0>         0.0722
     28 H14        -3.2012   -4.8473    4.0779 H         1 <0>         0.0753
     29 H15        -4.8899   -5.4798    3.5832 H         1 <0>         0.0748
     30 H16        -5.9773   -6.1222    2.3289 H         1 <0>         0.0723
     31 H17        -4.4548   -6.9648    2.7036 H         1 <0>         0.0765
@<TRIPOS>BOND
     1    1    2 1
     2    1   17 1
     3    1   18 1
     4    1   19 1
     5    2    3 1
     6    2   20 1
     7    2   21 1
     8    3    4 1
     9    3   22 1
    10    3   23 1
    11    4    9 ar
    12    4    5 ar
    13    5    6 ar
    14    5   24 1
    15    6    7 ar
    16    6   10 1
    17    7    8 ar
    18    8    9 ar
    19    8   25 1
    20   10   11 1
    21   10   12 1
    22   10   13 1
    23   12   26 1
    24   12   27 1
    25   12   28 1
    26   13   14 1
    27   13   15 1
    28   13   16 1
    29   15   29 1
    30   15   30 1
    31   15   31 1
@<TRIPOS>MOLECULE
ZINC15771304
   42    44     0     0     0
SMALL
USER_CHARGES
1-(4-phenylpiperazin-1-yl)-3-pyrrol-1-yl-propan-1-one
@<TRIPOS>ATOM
      1 C1          6.3114   -3.4480   -3.5404 C.ar      1 <0>        -0.1439
      2 C2          5.7306   -2.4567   -4.3101 C.ar      1 <0>        -0.0945
      3 C3          4.4916   -1.9516   -3.9680 C.ar      1 <0>        -0.1395
      4 C4          3.8288   -2.4403   -2.8494 C.ar      1 <0>         0.1075
      5 C5          4.4174   -3.4324   -2.0754 C.ar      1 <0>        -0.1707
      6 C6          5.6543   -3.9368   -2.4262 C.ar      1 <0>        -0.0929
      7 N1          2.5758   -1.9314   -2.5003 N.pl3     1 <0>        -0.4882
      8 C7          2.0597   -2.5865   -1.2910 C.3       1 <0>         0.0368
      9 C8          0.6161   -2.1347   -1.0458 C.3       1 <0>         0.1147
     10 N2          0.5851   -0.6645   -1.0180 N.am      1 <0>        -0.6152
     11 C9          1.2018    0.0658   -2.1358 C.3       1 <0>         0.1084
     12 C10         2.6275   -0.4726   -2.3352 C.3       1 <0>         0.0425
     13 C11         0.0021   -0.0041    0.0020 C.2       1 <0>         0.5223
     14 O1         -0.5061   -0.6224    0.9132 O.2       1 <0>        -0.5364
     15 C12        -0.0184    1.5028    0.0103 C.3       1 <0>        -0.1570
     16 C13        -0.7345    1.9962    1.2691 C.3       1 <0>         0.1219
     17 N3         -0.7544    3.4610    1.2772 N.pl3     1 <0>        -0.4507
     18 C14         0.1967    4.2653    1.8316 C.2       1 <0>        -0.0179
     19 C15        -0.1692    5.5483    1.6350 C.2       1 <0>        -0.2001
     20 C16        -1.3959    5.5354    0.9422 C.2       1 <0>        -0.2002
     21 C17        -1.7299    4.2452    0.7366 C.2       1 <0>        -0.0172
     22 H1          7.2803   -3.8415   -3.8103 H         1 <0>         0.1222
     23 H2          6.2463   -2.0774   -5.1799 H         1 <0>         0.1251
     24 H3          4.0387   -1.1772   -4.5694 H         1 <0>         0.1250
     25 H4          3.9067   -3.8114   -1.2026 H         1 <0>         0.1260
     26 H5          6.1107   -4.7109   -1.8272 H         1 <0>         0.1231
     27 H6          2.6773   -2.3108   -0.4362 H         1 <0>         0.0521
     28 H7          2.0847   -3.6681   -1.4245 H         1 <0>         0.0982
     29 H8          0.2672   -2.5264   -0.0903 H         1 <0>         0.1021
     30 H9         -0.0259   -2.4994   -1.8475 H         1 <0>         0.0798
     31 H10         0.6176   -0.0914   -3.0425 H         1 <0>         0.0847
     32 H11         1.2402    1.1296   -1.9014 H         1 <0>         0.0948
     33 H12         3.2372   -0.2263   -1.4659 H         1 <0>         0.0507
     34 H13         3.0646   -0.0211   -3.2258 H         1 <0>         0.0976
     35 H14         1.0042    1.8801    0.0026 H         1 <0>         0.1014
     36 H15        -0.5455    1.8639   -0.8728 H         1 <0>         0.1029
     37 H16        -1.7571    1.6189    1.2768 H         1 <0>         0.0981
     38 H17        -0.2073    1.6351    2.1522 H         1 <0>         0.0974
     39 H18         1.0903    3.9324    2.3387 H         1 <0>         0.1593
     40 H19         0.3756    6.4245    1.9541 H         1 <0>         0.1349
     41 H20        -1.9643    6.4000    0.6326 H         1 <0>         0.1350
     42 H21        -2.6169    3.8937    0.2305 H         1 <0>         0.1599
@<TRIPOS>BOND
     1    1    6 ar
     2    1    2 ar
     3    1   22 1
     4    2    3 ar
     5    2   23 1
     6    3    4 ar
     7    3   24 1
     8    4    5 ar
     9    4    7 1
    10    5    6 ar
    11    5   25 1
    12    6   26 1
    13    7   12 1
    14    7    8 1
    15    8    9 1
    16    8   27 1
    17    8   28 1
    18    9   10 1
    19    9   29 1
    20    9   30 1
    21   10   11 1
    22   10   13 am
    23   11   12 1
    24   11   31 1
    25   11   32 1
    26   12   33 1
    27   12   34 1
    28   13   14 2
    29   13   15 1
    30   15   16 1
    31   15   35 1
    32   15   36 1
    33   16   17 1
    34   16   37 1
    35   16   38 1
    36   17   21 1
    37   17   18 1
    38   18   19 2
    39   18   39 1
    40   19   20 1
    41   19   40 1
    42   20   21 2
    43   20   41 1
    44   21   42 1
@<TRIPOS>MOLECULE
ZINC04504324
   44    45     0     0     0
SMALL
USER_CHARGES

@<TRIPOS>ATOM
      1 C1          0.6793   -2.5365   -1.1461 C.3       1 <0>        -0.1621
      2 C2         -0.0032   -1.1828   -1.3522 C.3       1 <0>        -0.1218
      3 C3         -1.5020   -1.3202   -1.0774 C.3       1 <0>        -0.1476
      4 C4          0.5995   -0.1562   -0.3910 C.3       1 <0>         0.1068
      5 N1          1.9925    0.1026   -0.7636 N.am      1 <0>        -0.5983
      6 C5          3.0610   -0.7548   -0.2445 C.3       1 <0>         0.1469
      7 H1          2.6335   -1.5356    0.3845 H         1 <0>         0.1129
      8 C6          4.0515    0.0885    0.5754 C.3       1 <0>        -0.1427
      9 C7          5.3359   -0.7288    0.8542 C.3       1 <0>        -0.5736
     10 S1          5.4049   -1.8752   -0.5823 S.o2      1 <0>         2.3717
     11 O1          5.2904   -3.2116   -0.1132 O.2       1 <0>        -0.9354
     12 O2          6.5039   -1.5158   -1.4082 O.2       1 <0>        -0.9308
     13 C8          3.8383   -1.3999   -1.4274 C.3       1 <0>        -0.6024
     14 C9          2.2911    1.1295   -1.5839 C.2       1 <0>         0.5239
     15 O3          3.4310    1.2886   -1.9661 O.2       1 <0>        -0.5268
     16 C10         1.2084    2.0799   -2.0261 C.3       1 <0>        -0.1130
     17 C11         0.3466    1.4247   -3.1251 C.3       1 <0>        -0.1140
     18 C12         0.0160    2.5881   -4.0927 C.3       1 <0>        -0.1247
     19 C13         1.3322    3.4045   -4.1079 C.3       1 <0>        -0.1242
     20 C14         1.8351    3.3387   -2.6510 C.3       1 <0>        -0.1191
     21 H2          1.7224   -2.4683   -1.4549 H         1 <0>         0.0613
     22 H3          0.6296   -2.8119   -0.0926 H         1 <0>         0.0576
     23 H4          0.1721   -3.2938   -1.7439 H         1 <0>         0.0598
     24 H5          0.1490   -0.8518   -2.3795 H         1 <0>         0.0816
     25 H6         -1.6542   -1.6511   -0.0501 H         1 <0>         0.0582
     26 H7         -1.9882   -0.3557   -1.2242 H         1 <0>         0.0572
     27 H8         -1.9314   -2.0515   -1.7621 H         1 <0>         0.0607
     28 H9          0.0302    0.7716   -0.4466 H         1 <0>         0.0893
     29 H10         0.5619   -0.5453    0.6265 H         1 <0>         0.0836
     30 H11         4.3093    0.9884    0.0171 H         1 <0>         0.1036
     31 H12         3.5897    0.3708    1.5216 H         1 <0>         0.0959
     32 H13         6.2110   -0.0793    0.8726 H         1 <0>         0.1439
     33 H14         5.2456   -1.2841    1.7878 H         1 <0>         0.1399
     34 H15         3.3160   -2.2764   -1.8109 H         1 <0>         0.1436
     35 H16         4.0222   -0.6749   -2.2202 H         1 <0>         0.1623
     36 H17         0.5843    2.3560   -1.1762 H         1 <0>         0.0967
     37 H18         0.9117    0.6484   -3.6410 H         1 <0>         0.0704
     38 H19        -0.5675    1.0123   -2.6979 H         1 <0>         0.0766
     39 H20        -0.2149    2.2089   -5.0882 H         1 <0>         0.0700
     40 H21        -0.8071    3.1895   -3.7067 H         1 <0>         0.0703
     41 H22         2.0565    2.9480   -4.7825 H         1 <0>         0.0677
     42 H23         1.1373    4.4370   -4.3979 H         1 <0>         0.0681
     43 H24         1.5144    4.2258   -2.1049 H         1 <0>         0.0680
     44 H25         2.9222    3.2622   -2.6344 H         1 <0>         0.0883
@<TRIPOS>BOND
     1    1    2 1
     2    1   21 1
     3    1   22 1
     4    1   23 1
     5    2    3 1
     6    2    4 1
     7    2   24 1
     8    3   25 1
     9    3   26 1
    10    3   27 1
    11    4    5 1
    12    4   28 1
    13    4   29 1
    14    5    6 1
    15    5   14 am
    16    6    7 1
    17    6   13 1
    18    6    8 1
    19    8    9 1
    20    8   30 1
    21    8   31 1
    22    9   10 1
    23    9   32 1
    24    9   33 1
    25   10   11 2
    26   10   12 2
    27   10   13 1
    28   13   34 1
    29   13   35 1
    30   14   15 2
    31   14   16 1
    32   16   20 1
    33   16   17 1
    34   16   36 1
    35   17   18 1
    36   17   37 1
    37   17   38 1
    38   18   19 1
    39   18   39 1
    40   18   40 1
    41   19   20 1
    42   19   41 1
    43   19   42 1
    44   20   43 1
    45   20   44 1
@<TRIPOS>MOLECULE
ZINC52226840
   26    27     0     0     0
SMALL
USER_CHARGES

@<TRIPOS>ATOM
      1 C1         -0.0187    1.5258    0.0104 C.3       1 <0>        -0.1479
      2 C2          0.0021   -0.0041    0.0020 C.3       1 <0>        -0.0365
      3 C3          0.7309   -0.5033    1.2229 C.2       1 <0>         0.0654
      4 N1          0.2399   -0.7927    2.4020 N.2       1 <0>        -0.5089
      5 C4          1.0120   -1.2229    3.3799 C.2       1 <0>         0.0386
      6 C5          2.3359   -1.3512    3.1075 C.2       1 <0>        -0.2072
      7 S1          2.3723   -0.8311    1.3996 S.3       1 <0>         0.1302
      8 C6          0.4511   -1.5565    4.7382 C.3       1 <0>         0.1959
      9 N2         -0.2840   -0.4018    5.2601 N.pl3     1 <0>        -0.2792
     10 C7         -1.5690   -0.4056    5.6842 C.2       1 <0>        -0.0188
     11 C8         -1.8394    0.8604    6.0792 C.2       1 <0>        -0.0359
     12 N3         -0.7215    1.5675    5.8800 N.2       1 <0>        -0.2515
     13 N4          0.1831    0.7896    5.3991 N.2       1 <0>        -0.0693
     14 C9         -3.1437    1.3728    6.6337 C.3       1 <0>         0.0104
     15 Br1        -3.1440    1.1815    8.5904 Br        1 <0>        -0.1424
     16 H1          1.0039    1.9031    0.0027 H         1 <0>         0.0595
     17 H2         -0.5459    1.8868   -0.8726 H         1 <0>         0.0728
     18 H3         -0.5289    1.8773    0.9072 H         1 <0>         0.0612
     19 H4         -1.0205   -0.3814    0.0098 H         1 <0>         0.0975
     20 H5          0.5123   -0.3556   -0.8948 H         1 <0>         0.0930
     21 H6          3.1426   -1.6803    3.7456 H         1 <0>         0.2019
     22 H7         -0.2234   -2.4086    4.6535 H         1 <0>         0.1224
     23 H8          1.2668   -1.8050    5.4171 H         1 <0>         0.1196
     24 H9         -2.2432   -1.2491    5.7033 H         1 <0>         0.1925
     25 H10        -3.2620    2.4241    6.3714 H         1 <0>         0.1184
     26 H11        -3.9684    0.7981    6.2123 H         1 <0>         0.1182
@<TRIPOS>BOND
     1    1    2 1
     2    1   16 1
     3    1   17 1
     4    1   18 1
     5    2    3 1
     6    2   19 1
     7    2   20 1
     8    3    7 1
     9    3    4 2
    10    4    5 1
    11    5    6 2
    12    5    8 1
    13    6    7 1
    14    6   21 1
    15    8    9 1
    16    8   22 1
    17    8   23 1
    18    9   13 1
    19    9   10 1
    20   10   11 2
    21   10   24 1
    22   11   12 1
    23   11   14 1
    24   12   13 2
    25   14   15 1
    26   14   25 1
    27   14   26 1
@<TRIPOS>MOLECULE
ZINC58240060
   31    32     0     0     0
SMALL
USER_CHARGES

@<TRIPOS>ATOM
      1 C1         -0.0167    1.3780    0.0096 C.ar      1 <0>        -0.1279
      2 C2          1.1706    2.0866    0.0021 C.ar      1 <0>        -0.0868
      3 C3          2.3773    1.4137   -0.0131 C.ar      1 <0>        -0.1496
      4 C4          2.3974    0.0291   -0.0207 C.ar      1 <0>         0.1072
      5 C5          1.2080   -0.6793   -0.0132 C.ar      1 <0>        -0.1312
      6 C6          0.0021   -0.0041    0.0020 C.ar      1 <0>        -0.0726
      7 C7          1.2281   -2.1862   -0.0220 C.3       1 <0>         0.1117
      8 O1         -0.1126   -2.6805   -0.0117 O.3       1 <0>        -0.3434
      9 C8         -0.2707   -4.0134   -0.0178 C.2       1 <0>         0.4743
     10 O2          0.6971   -4.7365   -0.0314 O.2       1 <0>        -0.4871
     11 C9         -1.6554   -4.6080   -0.0077 C.3       1 <0>        -0.0828
     12 H1         -2.1863   -4.2735    0.8836 H         1 <0>         0.1361
     13 C10        -2.4186   -4.1459   -1.2601 C.3       1 <0>        -0.1246
     14 C11        -3.7068   -5.0082   -1.3880 C.3       1 <0>        -0.5729
     15 S1         -3.0493   -6.6668   -0.9280 S.o2      1 <0>         2.3755
     16 O3         -2.6461   -7.3478   -2.1082 O.2       1 <0>        -0.9266
     17 O4         -3.9599   -7.2938   -0.0354 O.2       1 <0>        -0.9299
     18 C12        -1.5515   -6.1522    0.0055 C.3       1 <0>        -0.5793
     19 F1          3.5766   -0.6299   -0.0360 F         1 <0>        -0.1350
     20 H2         -0.9594    1.9048    0.0260 H         1 <0>         0.1340
     21 H3          1.1547    3.1665    0.0077 H         1 <0>         0.1363
     22 H4          3.3046    1.9675   -0.0193 H         1 <0>         0.1404
     23 H5         -0.9259   -0.5565    0.0083 H         1 <0>         0.1421
     24 H6          1.7380   -2.5375   -0.9190 H         1 <0>         0.0886
     25 H7          1.7554   -2.5477    0.8609 H         1 <0>         0.0882
     26 H8         -2.6879   -3.0944   -1.1600 H         1 <0>         0.1168
     27 H9         -1.7945   -4.2833   -2.1431 H         1 <0>         0.0961
     28 H10        -4.4727   -4.6792   -0.6857 H         1 <0>         0.1457
     29 H11        -4.0844   -5.0036   -2.4105 H         1 <0>         0.1487
     30 H12        -0.6461   -6.4830   -0.5033 H         1 <0>         0.1567
     31 H13        -1.5835   -6.5330    1.0263 H         1 <0>         0.1514
@<TRIPOS>BOND
     1    1    6 ar
     2    1    2 ar
     3    1   20 1
     4    2    3 ar
     5    2   21 1
     6    3    4 ar
     7    3   22 1
     8    4    5 ar
     9    4   19 1
    10    5    6 ar
    11    5    7 1
    12    6   23 1
    13    7    8 1
    14    7   24 1
    15    7   25 1
    16    8    9 1
    17    9   10 2
    18    9   11 1
    19   11   12 1
    20   11   18 1
    21   11   13 1
    22   13   14 1
    23   13   26 1
    24   13   27 1
    25   14   15 1
    26   14   28 1
    27   14   29 1
    28   15   16 2
    29   15   17 2
    30   15   18 1
    31   18   30 1
    32   18   31 1
@<TRIPOS>MOLECULE
ZINC66236961
   41    42     0     0     0
SMALL
USER_CHARGES

@<TRIPOS>ATOM
      1 C1         -1.3692    2.3160    0.6555 C.3       1 <0>        -0.1759
      2 C2         -0.7170    1.0087    0.2011 C.3       1 <0>         0.0972
      3 N1         -1.7343   -0.0424    0.1206 N.am      1 <0>        -0.6047
      4 C3         -2.5083   -0.2198   -1.1106 C.3       1 <0>         0.1532
      5 C4         -1.7955   -1.1904   -2.0166 C.2       1 <0>        -0.1598
      6 C5         -2.1191   -2.4597   -2.0009 C.2       1 <0>        -0.1596
      7 C6         -0.7103   -0.7009   -2.9406 C.3       1 <0>        -0.1157
      8 C7         -1.9582   -0.8461    1.1790 C.2       1 <0>         0.5054
      9 O1         -2.7355   -1.7722    1.0836 O.2       1 <0>        -0.5123
     10 C8         -1.2428   -0.5940    2.4812 C.3       1 <0>         0.1381
     11 H1         -1.1192    0.4823    2.6009 H         1 <0>         0.1106
     12 C9          0.1600   -1.2405    2.4006 C.3       1 <0>        -0.0630
     13 S1          0.2567   -2.0266    4.0724 S.3       1 <0>        -0.2554
     14 C10        -1.5557   -2.2947    4.2556 C.3       1 <0>         0.1832
     15 N2         -2.0852   -1.0876    3.5752 N.am      1 <0>        -0.6127
     16 C11        -3.2342   -0.7330    4.2116 C.2       1 <0>         0.5466
     17 O2         -4.0614    0.0351    3.7679 O.2       1 <0>        -0.5075
     18 C12        -3.3360   -1.4305    5.5483 C.3       1 <0>        -0.1398
     19 C13        -1.9713   -2.1224    5.7255 C.3       1 <0>        -0.1102
     20 C14        -2.0341   -3.6148    3.6477 C.3       1 <0>        -0.1367
     21 H2         -0.6123    3.0980    0.7154 H         1 <0>         0.0727
     22 H3         -2.1367    2.6075   -0.0615 H         1 <0>         0.0633
     23 H4         -1.8233    2.1739    1.6361 H         1 <0>         0.0579
     24 H5         -0.2629    1.1508   -0.7795 H         1 <0>         0.0873
     25 H6          0.0506    0.7172    0.9181 H         1 <0>         0.0775
     26 H7         -3.4962   -0.6099   -0.8657 H         1 <0>         0.0879
     27 H8         -2.6118    0.7402   -1.6162 H         1 <0>         0.0838
     28 H9         -1.6082   -3.1553   -2.6502 H         1 <0>         0.0973
     29 H10        -2.8968   -2.8106   -1.3387 H         1 <0>         0.1038
     30 H11         0.0908   -0.2511   -2.3541 H         1 <0>         0.0621
     31 H12        -0.3146   -1.5398   -3.5130 H         1 <0>         0.0617
     32 H13        -1.1223    0.0425   -3.6231 H         1 <0>         0.0656
     33 H14         0.2056   -1.9884    1.6090 H         1 <0>         0.1078
     34 H15         0.9362   -0.4859    2.2733 H         1 <0>         0.1311
     35 H16        -3.4978   -0.7046    6.3452 H         1 <0>         0.1156
     36 H17        -4.1397   -2.1666    5.5335 H         1 <0>         0.1136
     37 H18        -2.0842   -3.0874    6.2195 H         1 <0>         0.1022
     38 H19        -1.2676   -1.4864    6.2626 H         1 <0>         0.1000
     39 H20        -1.5406   -4.4464    4.1507 H         1 <0>         0.0815
     40 H21        -3.1132   -3.7028    3.7737 H         1 <0>         0.0729
     41 H22        -1.7893   -3.6356    2.5858 H         1 <0>         0.0733
@<TRIPOS>BOND
     1    1    2 1
     2    1   21 1
     3    1   22 1
     4    1   23 1
     5    2    3 1
     6    2   24 1
     7    2   25 1
     8    3    4 1
     9    3    8 am
    10    4    5 1
    11    4   26 1
    12    4   27 1
    13    5    6 2
    14    5    7 1
    15    6   28 1
    16    6   29 1
    17    7   30 1
    18    7   31 1
    19    7   32 1
    20    8    9 2
    21    8   10 1
    22   10   11 1
    23   10   15 1
    24   10   12 1
    25   12   13 1
    26   12   33 1
    27   12   34 1
    28   13   14 1
    29   14   19 1
    30   14   15 1
    31   14   20 1
    32   15   16 am
    33   16   17 2
    34   16   18 1
    35   18   19 1
    36   18   35 1
    37   18   36 1
    38   19   37 1
    39   19   38 1
    40   20   39 1
    41   20   40 1
    42   20   41 1
@<TRIPOS>MOLECULE
ZINC02599702
   27    29     0     0     0
SMALL
USER_CHARGES
8-(4-bromophenyl)-3-chloro-1,7-diazabicyclo[4.3.0]nona-2,4,6,8-tetraene-9-carbaldehyde
@<TRIPOS>ATOM
      1 C1          4.2995   -3.7467    1.2843 C.ar      1 <0>        -0.0501
      2 C2          4.7884   -5.0175    1.5058 C.ar      1 <0>        -0.0954
      3 C3          4.2330   -6.1005    0.8459 C.ar      1 <0>        -0.0739
      4 C4          3.1814   -5.9157   -0.0353 C.ar      1 <0>        -0.0984
      5 C5          2.6810   -4.6500   -0.2605 C.ar      1 <0>        -0.0729
      6 C6          3.2367   -3.5553    0.4016 C.ar      1 <0>        -0.0192
      7 C7          2.7040   -2.1938    0.1634 C.2       1 <0>         0.2105
      8 C8          3.4644   -1.0354   -0.0546 C.2       1 <0>        -0.1790
      9 N1          2.5556   -0.0044   -0.2290 N.pl3     1 <0>        -0.3263
     10 C9          2.7175    1.3236   -0.4697 C.2       1 <0>         0.0716
     11 C10         1.6429    2.1371   -0.6024 C.2       1 <0>        -0.0534
     12 C11         0.3472    1.6131   -0.4919 C.2       1 <0>        -0.0775
     13 C12         0.1774    0.2823   -0.2506 C.2       1 <0>        -0.0663
     14 C13         1.3070   -0.5456   -0.1160 C.2       1 <0>         0.2581
     15 N2          1.4204   -1.8520    0.1179 N.2       1 <0>        -0.4791
     16 Cl1         1.8701    3.8305   -0.9097 Cl        1 <0>        -0.0190
     17 C14         4.8626   -0.9401   -0.0892 C.2       1 <0>         0.4038
     18 O1          5.5423   -1.9461   -0.0227 O.2       1 <0>        -0.4446
     19 Br1         4.9138   -7.8384    1.1489 Br        1 <0>        -0.0463
     20 H1          4.7362   -2.9021    1.7964 H         1 <0>         0.1322
     21 H2          5.6089   -5.1673    2.1919 H         1 <0>         0.1379
     22 H3          2.7521   -6.7640   -0.5476 H         1 <0>         0.1383
     23 H4          1.8608   -4.5070   -0.9484 H         1 <0>         0.1364
     24 H5          3.7127    1.7340   -0.5560 H         1 <0>         0.1807
     25 H6         -0.5113    2.2592   -0.6018 H         1 <0>         0.1628
     26 H7         -0.8157   -0.1330   -0.1638 H         1 <0>         0.1711
     27 H8          5.3360    0.0268   -0.1749 H         1 <0>         0.0979
@<TRIPOS>BOND
     1    1    6 ar
     2    1    2 ar
     3    1   20 1
     4    2    3 ar
     5    2   21 1
     6    3    4 ar
     7    3   19 1
     8    4    5 ar
     9    4   22 1
    10    5    6 ar
    11    5   23 1
    12    6    7 1
    13    7   15 1
    14    7    8 2
    15    8    9 1
    16    8   17 1
    17    9   14 1
    18    9   10 1
    19   10   11 2
    20   10   24 1
    21   11   12 1
    22   11   16 1
    23   12   13 2
    24   12   25 1
    25   13   14 1
    26   13   26 1
    27   14   15 2
    28   17   18 2
    29   17   27 1
@<TRIPOS>MOLECULE
ZINC12661366
   51    54     0     0     0
SMALL
USER_CHARGES
(1R,3aR,3bS,9aR,9bR,11aS)-1-acetyl-9a,11a-dimethyl-2,3,3a,3b,4,8,9,9b,10,11-decahydro-1H-indeno[5,4-f]chromen-7-one
@<TRIPOS>ATOM
      1 C1          4.6505    1.8955   -4.4250 C.3       1 <0>        -0.2003
      2 C2          3.3014    2.5390   -4.6169 C.2       1 <0>         0.3653
      3 O1          3.0181    3.5414   -4.0058 O.2       1 <0>        -0.4466
      4 C3          2.3102    1.9345   -5.5670 C.3       1 <0>        -0.1273
      5 H1          2.7965    1.5121   -6.3319 H         1 <0>         0.0873
      6 C4          1.3597    3.0131   -6.1203 C.3       1 <0>        -0.1249
      7 C5         -0.0373    2.3647   -6.1584 C.3       1 <0>        -0.1215
      8 C6         -0.0221    1.3111   -5.0192 C.3       1 <0>        -0.0677
      9 H2         -0.6688    0.4481   -5.2963 H         1 <0>         0.0812
     10 C7          1.4357    0.8533   -4.9361 C.3       1 <0>        -0.0311
     11 C8          1.8855    0.3643   -3.5850 C.3       1 <0>        -0.1157
     12 C9          1.3459    1.1767   -2.4130 C.3       1 <0>        -0.1260
     13 C10        -0.1823    1.1777   -2.5138 C.3       1 <0>        -0.0601
     14 H3         -0.5259    0.1446   -2.6349 H         1 <0>         0.0818
     15 C11        -0.5725    1.9659   -3.7592 C.3       1 <0>        -0.0731
     16 H4         -1.6728    1.9642   -3.8334 H         1 <0>         0.0707
     17 C12        -0.1105    3.4124   -3.6278 C.3       1 <0>        -0.0863
     18 C13        -0.5158    3.9803   -2.2995 C.2       1 <0>        -0.1581
     19 C14        -0.8091    3.2559   -1.2487 C.2       1 <0>         0.0501
     20 C15        -0.8177    1.7562   -1.2651 C.3       1 <0>        -0.0371
     21 C16        -0.1018    1.2557   -0.0067 C.3       1 <0>        -0.1185
     22 C17        -0.8189    1.7993    1.2301 C.3       1 <0>        -0.1642
     23 C18        -1.0930    3.2738    1.0867 C.2       1 <0>         0.4806
     24 O2         -1.3446    3.9180    2.0968 O.2       1 <0>        -0.4731
     25 O3         -1.0674    3.9078   -0.0858 O.3       1 <0>        -0.2852
     26 C19        -2.2741    1.2804   -1.2160 C.3       1 <0>        -0.1483
     27 C20         1.5465   -0.3803   -5.8779 C.3       1 <0>        -0.1523
     28 H5          5.2992    2.2789   -5.0824 H         1 <0>         0.0860
     29 H6          5.0038    2.0874   -3.4119 H         1 <0>         0.0865
     30 H7          4.5659    0.8203   -4.5828 H         1 <0>         0.0855
     31 H8          1.3629    3.8918   -5.4804 H         1 <0>         0.0872
     32 H9          1.6681    3.2927   -7.1313 H         1 <0>         0.0659
     33 H10        -0.8166    3.1093   -5.9946 H         1 <0>         0.0749
     34 H11        -0.2016    1.8781   -7.1254 H         1 <0>         0.0649
     35 H12         2.9670    0.2889   -3.5278 H         1 <0>         0.0691
     36 H13         1.5058   -0.6687   -3.4686 H         1 <0>         0.0644
     37 H14         1.7245    2.1938   -2.4347 H         1 <0>         0.0764
     38 H15         1.6495    0.6972   -1.4779 H         1 <0>         0.0687
     39 H16         0.9736    3.4738   -3.7178 H         1 <0>         0.1128
     40 H17        -0.5647    4.0180   -4.4185 H         1 <0>         0.0771
     41 H18        -0.5721    5.0571   -2.1987 H         1 <0>         0.1177
     42 H19        -0.1097    0.1651    0.0109 H         1 <0>         0.0916
     43 H20         0.9317    1.6081   -0.0087 H         1 <0>         0.0807
     44 H21        -1.7495    1.2584    1.4021 H         1 <0>         0.1154
     45 H22        -0.1760    1.6425    2.1075 H         1 <0>         0.1130
     46 H23        -2.7584    1.6836   -0.3267 H         1 <0>         0.0541
     47 H24        -2.8000    1.6279   -2.1053 H         1 <0>         0.0660
     48 H25        -2.2995    0.1912   -1.1813 H         1 <0>         0.0694
     49 H26         0.8942   -1.1744   -5.5147 H         1 <0>         0.0589
     50 H27         1.2459   -0.0957   -6.8862 H         1 <0>         0.0583
     51 H28         2.5772   -0.7348   -5.8925 H         1 <0>         0.0562
@<TRIPOS>BOND
     1    1    2 1
     2    1   28 1
     3    1   29 1
     4    1   30 1
     5    2    3 2
     6    2    4 1
     7    4    5 1
     8    4   10 1
     9    4    6 1
    10    6    7 1
    11    6   31 1
    12    6   32 1
    13    7    8 1
    14    7   33 1
    15    7   34 1
    16    8    9 1
    17    8   15 1
    18    8   10 1
    19   10   11 1
    20   10   27 1
    21   11   12 1
    22   11   35 1
    23   11   36 1
    24   12   13 1
    25   12   37 1
    26   12   38 1
    27   13   14 1
    28   13   20 1
    29   13   15 1
    30   15   16 1
    31   15   17 1
    32   17   18 1
    33   17   39 1
    34   17   40 1
    35   18   19 2
    36   18   41 1
    37   19   25 1
    38   19   20 1
    39   20   21 1
    40   20   26 1
    41   21   22 1
    42   21   42 1
    43   21   43 1
    44   22   23 1
    45   22   44 1
    46   22   45 1
    47   23   24 2
    48   23   25 1
    49   26   46 1
    50   26   47 1
    51   26   48 1
    52   27   49 1
    53   27   50 1
    54   27   51 1
@<TRIPOS>MOLECULE
ZINC20605069
   32    34     0     0     0
SMALL
USER_CHARGES
6-(5-ethyl-2-thienyl)-3-methyl-4-(trifluoromethyl)isoxazolo[5,4-b]pyridine
@<TRIPOS>ATOM
      1 C1         -0.7288    1.5792    1.2668 C.3       1 <0>        -0.1521
      2 C2         -0.0127    1.0858    0.0080 C.3       1 <0>        -0.0489
      3 C3         -0.7416    1.5850   -1.2129 C.2       1 <0>        -0.1044
      4 C4         -0.5600    2.7419   -1.9029 C.2       1 <0>        -0.1760
      5 C5         -1.3441    2.9957   -3.0045 C.2       1 <0>        -0.0707
      6 C6         -2.2941    2.0745   -3.3636 C.2       1 <0>        -0.1655
      7 S1         -2.0709    0.8127   -2.1204 S.3       1 <0>         0.0948
      8 C7         -3.2516    2.1156   -4.4849 C.ar      1 <0>         0.3069
      9 C8         -4.1438    1.0513   -4.6662 C.ar      1 <0>        -0.1465
     10 C9         -5.0319    1.0885   -5.7056 C.ar      1 <0>        -0.0467
     11 C10        -5.0135    2.2015   -6.5564 C.ar      1 <0>        -0.2208
     12 C11        -5.7861    2.5874   -7.7375 C.2       1 <0>         0.1493
     13 N1         -5.3394    3.7407   -8.1326 N.2       1 <0>        -0.2572
     14 O1         -4.2963    4.1665   -7.2795 O.3       1 <0>        -0.0702
     15 C12        -4.0934    3.2391   -6.3224 C.ar      1 <0>         0.3149
     16 N2         -3.2554    3.1630   -5.3004 N.ar      1 <0>        -0.4522
     17 C13        -6.8949    1.7926   -8.3777 C.3       1 <0>        -0.1120
     18 C14        -6.0062   -0.0391   -5.9298 C.3       1 <0>         0.5120
     19 F1         -5.8192   -1.0190   -4.9489 F         1 <0>        -0.1639
     20 F2         -7.3138    0.4525   -5.8545 F         1 <0>        -0.1634
     21 F3         -5.7901   -0.5977   -7.1941 F         1 <0>        -0.1634
     22 H1         -0.1967    1.2148    2.1579 H         1 <0>         0.0688
     23 H2         -1.7608    1.1984    1.2746 H         1 <0>         0.0599
     24 H3         -0.7437    2.6791    1.2728 H         1 <0>         0.0616
     25 H4          1.0193    1.4666    0.0002 H         1 <0>         0.0942
     26 H5          0.0023   -0.0141    0.0019 H         1 <0>         0.0853
     27 H6          0.1925    3.4515   -1.5922 H         1 <0>         0.1433
     28 H7         -1.2171    3.9054   -3.5726 H         1 <0>         0.1479
     29 H8         -4.1304    0.2083   -3.9913 H         1 <0>         0.1658
     30 H9         -7.2834    2.3409   -9.2486 H         1 <0>         0.0991
     31 H10        -7.7048    1.6404   -7.6491 H         1 <0>         0.1049
     32 H11        -6.5058    0.8164   -8.7027 H         1 <0>         0.1050
@<TRIPOS>BOND
     1    1    2 1
     2    1   22 1
     3    1   23 1
     4    1   24 1
     5    2    3 1
     6    2   25 1
     7    2   26 1
     8    3    7 1
     9    3    4 2
    10    4    5 1
    11    4   27 1
    12    5    6 2
    13    5   28 1
    14    6    7 1
    15    6    8 1
    16    8   16 ar
    17    8    9 ar
    18    9   10 ar
    19    9   29 1
    20   10   11 ar
    21   10   18 1
    22   11   15 ar
    23   11   12 1
    24   12   13 2
    25   12   17 1
    26   13   14 1
    27   14   15 1
    28   15   16 ar
    29   17   30 1
    30   17   31 1
    31   17   32 1
    32   18   19 1
    33   18   20 1
    34   18   21 1
@<TRIPOS>MOLECULE
ZINC36910778
   32    34     0     0     0
SMALL
USER_CHARGES

@<TRIPOS>ATOM
      1 C1         -0.0187    1.5258    0.0104 C.3       1 <0>        -0.1512
      2 C2          0.0021   -0.0041    0.0020 C.3       1 <0>         0.0677
      3 H1          0.5123   -0.3556   -0.8948 H         1 <0>         0.1165
      4 C3          0.7309   -0.5033    1.2229 C.2       1 <0>         0.2847
      5 N1          0.2460   -0.5100    2.4300 N.2       1 <0>        -0.4491
      6 C4          1.1632   -1.0246    3.2896 C.ar      1 <0>         0.0618
      7 C5          1.1664   -1.2565    4.6676 C.ar      1 <0>        -0.0486
      8 C6          2.2788   -1.8053    5.2659 C.ar      1 <0>        -0.0398
      9 C7          3.3976   -2.1302    4.5099 C.ar      1 <0>        -0.0858
     10 C8          3.4099   -1.9076    3.1495 C.ar      1 <0>        -0.0933
     11 C9          2.2978   -1.3553    2.5300 C.ar      1 <0>         0.0625
     12 N2          1.9928   -1.0193    1.2230 N.pl3     1 <0>        -0.4497
     13 C10         2.8237   -1.1764    0.1117 C.ar      1 <0>         0.1433
     14 C11         3.6915   -0.1592   -0.2592 C.ar      1 <0>        -0.0988
     15 C12         4.5124   -0.3163   -1.3584 C.ar      1 <0>        -0.0785
     16 C13         4.4767   -1.4867   -2.0984 C.ar      1 <0>        -0.0976
     17 C14         3.6206   -2.5076   -1.7449 C.ar      1 <0>        -0.0614
     18 C15         2.7892   -2.3654   -0.6314 C.ar      1 <0>        -0.0065
     19 C16         1.9025   -3.4248   -0.2547 C.1       1 <0>         0.2311
     20 N3          1.1990   -4.2652    0.0442 N.1       1 <0>        -0.3764
     21 Cl1         2.2828   -2.0927    6.9779 Cl        1 <0>        -0.0566
     22 Cl2        -1.6894   -0.6281    0.0148 Cl        1 <0>        -0.1275
     23 H2          1.0039    1.9031    0.0027 H         1 <0>         0.0760
     24 H3         -0.5459    1.8868   -0.8726 H         1 <0>         0.0858
     25 H4         -0.5289    1.8773    0.9072 H         1 <0>         0.0832
     26 H5          0.2998   -1.0058    5.2614 H         1 <0>         0.1456
     27 H6          4.2639   -2.5598    4.9910 H         1 <0>         0.1455
     28 H7          4.2830   -2.1624    2.5672 H         1 <0>         0.1346
     29 H8          3.7246    0.7566    0.3123 H         1 <0>         0.1429
     30 H9          5.1861    0.4784   -1.6430 H         1 <0>         0.1458
     31 H10         5.1224   -1.5998   -2.9567 H         1 <0>         0.1468
     32 H11         3.5961   -3.4181   -2.3253 H         1 <0>         0.1468
@<TRIPOS>BOND
     1    1    2 1
     2    1   23 1
     3    1   24 1
     4    1   25 1
     5    2    3 1
     6    2    4 1
     7    2   22 1
     8    4   12 1
     9    4    5 2
    10    5    6 1
    11    6   11 ar
    12    6    7 ar
    13    7    8 ar
    14    7   26 1
    15    8    9 ar
    16    8   21 1
    17    9   10 ar
    18    9   27 1
    19   10   11 ar
    20   10   28 1
    21   11   12 1
    22   12   13 1
    23   13   18 ar
    24   13   14 ar
    25   14   15 ar
    26   14   29 1
    27   15   16 ar
    28   15   30 1
    29   16   17 ar
    30   16   31 1
    31   17   18 ar
    32   17   32 1
    33   18   19 1
    34   19   20 3
@<TRIPOS>MOLECULE
ZINC58081504
   47    50     0     0     0
SMALL
USER_CHARGES

@<TRIPOS>ATOM
      1 C1         -2.6559    0.6016   -0.4850 C.3       1 <0>        -0.1188
      2 C2         -1.6901   -0.5374   -0.2823 C.ar      1 <0>        -0.0821
      3 C3         -0.6482   -0.7253   -1.1883 C.ar      1 <0>        -0.0858
      4 C4          0.2420   -1.7437   -1.0346 C.ar      1 <0>        -0.0947
      5 C5          0.1151   -2.6244    0.0531 C.ar      1 <0>         0.1457
      6 C6         -0.9458   -2.4315    0.9740 C.ar      1 <0>        -0.1090
      7 C7         -1.8433   -1.3662    0.7868 C.ar      1 <0>        -0.0935
      8 C8         -1.0754   -3.3102    2.0625 C.ar      1 <0>        -0.0182
      9 C9         -0.1465   -4.3378    2.1851 C.ar      1 <0>        -0.1824
     10 C10         0.8771   -4.4621    1.2297 C.ar      1 <0>         0.2042
     11 N1          0.9789   -3.6318    0.2239 N.ar      1 <0>        -0.4707
     12 C11         1.8812   -5.5773    1.3678 C.3       1 <0>        -0.1086
     13 C12        -0.2345   -5.2907    3.3105 C.2       1 <0>         0.5695
     14 O1         -0.2250   -6.4874    3.0959 O.2       1 <0>        -0.4993
     15 N2         -0.3253   -4.8336    4.5751 N.am      1 <0>        -0.5431
     16 C13        -0.3961   -3.3909    4.8445 C.3       1 <0>         0.0923
     17 C14         0.5536   -3.0848    6.0101 C.3       1 <0>        -0.1352
     18 C15         0.0588   -3.8190    7.2561 C.3       1 <0>        -0.0788
     19 C16        -0.1708   -5.2762    6.9531 C.ar      1 <0>        -0.1092
     20 C17        -0.3596   -5.7262    5.6543 C.ar      1 <0>         0.1443
     21 C18        -0.5796   -7.0767    5.4092 C.ar      1 <0>        -0.1508
     22 C19        -0.6138   -7.9730    6.4589 C.ar      1 <0>        -0.1035
     23 C20        -0.4288   -7.5254    7.7539 C.ar      1 <0>        -0.1025
     24 C21        -0.1994   -6.1816    8.0003 C.ar      1 <0>        -0.1019
     25 C22        -0.4649   -8.5036    8.8997 C.3       1 <0>        -0.1131
     26 H1         -2.2842    1.4888    0.0276 H         1 <0>         0.0753
     27 H2         -2.7521    0.8111   -1.5504 H         1 <0>         0.0711
     28 H3         -3.6300    0.3287   -0.0790 H         1 <0>         0.0697
     29 H4         -0.5455   -0.0521   -2.0265 H         1 <0>         0.1341
     30 H5          1.0432   -1.8746   -1.7468 H         1 <0>         0.1403
     31 H6         -2.6522   -1.2084    1.4848 H         1 <0>         0.1330
     32 H7         -1.8718   -3.1910    2.7822 H         1 <0>         0.1459
     33 H8          1.4793   -6.4858    0.9192 H         1 <0>         0.0925
     34 H9          2.8049   -5.2995    0.8602 H         1 <0>         0.0828
     35 H10         2.0857   -5.7534    2.4239 H         1 <0>         0.0749
     36 H11        -0.0861   -2.8345    3.9599 H         1 <0>         0.0953
     37 H12        -1.4151   -3.1157    5.1164 H         1 <0>         0.0816
     38 H13         1.5589   -3.4245    5.7610 H         1 <0>         0.0744
     39 H14         0.5653   -2.0114    6.1993 H         1 <0>         0.0883
     40 H15         0.8041   -3.7290    8.0464 H         1 <0>         0.0823
     41 H16        -0.8760   -3.3696    7.5911 H         1 <0>         0.0791
     42 H17        -0.7242   -7.4250    4.3972 H         1 <0>         0.1750
     43 H18        -0.7853   -9.0222    6.2687 H         1 <0>         0.1250
     44 H19        -0.0555   -5.8364    9.0134 H         1 <0>         0.1248
     45 H20         0.5391   -8.8867    9.0822 H         1 <0>         0.0692
     46 H21        -0.8302   -8.0008    9.7952 H         1 <0>         0.0647
     47 H22        -1.1297   -9.3306    8.6506 H         1 <0>         0.0658
@<TRIPOS>BOND
     1    1    2 1
     2    1   26 1
     3    1   27 1
     4    1   28 1
     5    2    7 ar
     6    2    3 ar
     7    3    4 ar
     8    3   29 1
     9    4    5 ar
    10    4   30 1
    11    5   11 ar
    12    5    6 ar
    13    6    7 ar
    14    6    8 ar
    15    7   31 1
    16    8    9 ar
    17    8   32 1
    18    9   10 ar
    19    9   13 1
    20   10   11 ar
    21   10   12 1
    22   12   33 1
    23   12   34 1
    24   12   35 1
    25   13   14 2
    26   13   15 am
    27   15   20 1
    28   15   16 1
    29   16   17 1
    30   16   36 1
    31   16   37 1
    32   17   18 1
    33   17   38 1
    34   17   39 1
    35   18   19 1
    36   18   40 1
    37   18   41 1
    38   19   24 ar
    39   19   20 ar
    40   20   21 ar
    41   21   22 ar
    42   21   42 1
    43   22   23 ar
    44   22   43 1
    45   23   24 ar
    46   23   25 1
    47   24   44 1
    48   25   45 1
    49   25   46 1
    50   25   47 1
@<TRIPOS>MOLECULE
ZINC05152454
   40    42     0     0     0
SMALL
USER_CHARGES
2-(2,5-dioxopyrrolidin-1-yl)-N-(3,5,6-trimethylbenzothiazol-2-ylidene)-acetamide
@<TRIPOS>ATOM
      1 C1         -8.4383    0.4677    0.0420 C.3       1 <0>        -0.1220
      2 C2         -6.9762    0.1028    0.0335 C.ar      1 <0>        -0.0461
      3 C3         -6.0314    1.1018    0.0353 C.ar      1 <0>        -0.1096
      4 C4         -4.6620    0.7944    0.0280 C.ar      1 <0>         0.1165
      5 C5         -4.3204   -0.5662    0.0191 C.ar      1 <0>        -0.1880
      6 C6         -5.2656   -1.5640    0.0173 C.ar      1 <0>        -0.0349
      7 C7         -6.6093   -1.2322    0.0246 C.ar      1 <0>        -0.0829
      8 C8         -7.6608   -2.3117    0.0223 C.3       1 <0>        -0.1166
      9 S1         -2.5456   -0.5398    0.0036 S.3       1 <0>         0.1536
     10 C9         -2.3178    1.1793    0.0195 C.2       1 <0>         0.4267
     11 N1         -1.1741    1.8605    0.0177 N.2       1 <0>        -0.6031
     12 C10        -0.0144    1.2119    0.0087 C.2       1 <0>         0.4815
     13 O1          0.0021   -0.0041    0.0020 O.2       1 <0>        -0.5239
     14 C11         1.2803    1.9830    0.0005 C.3       1 <0>         0.1076
     15 N2          2.4066    1.0463   -0.0153 N.am      1 <0>        -0.5641
     16 C12         2.9779    0.5814    1.1026 C.2       1 <0>         0.5313
     17 O2          2.6458    0.8684    2.2326 O.2       1 <0>        -0.4793
     18 C13         4.1018   -0.3617    0.7321 C.3       1 <0>        -0.1541
     19 C14         4.0870   -0.3534   -0.8101 C.3       1 <0>        -0.1541
     20 C15         2.9528    0.5891   -1.1488 C.2       1 <0>         0.5312
     21 O3          2.5951    0.8833   -2.2692 O.2       1 <0>        -0.4793
     22 N3         -3.5876    1.6641    0.0281 N.pl3     1 <0>        -0.4977
     23 C16        -3.8178    3.1109    0.0371 C.3       1 <0>         0.0646
     24 H1         -8.7863    0.5501    1.0716 H         1 <0>         0.0787
     25 H2         -8.5775    1.4220   -0.4661 H         1 <0>         0.0705
     26 H3         -9.0087   -0.3049   -0.4736 H         1 <0>         0.0787
     27 H4         -6.3466    2.1347    0.0423 H         1 <0>         0.1339
     28 H5         -4.9617   -2.6003    0.0100 H         1 <0>         0.1407
     29 H6         -7.9103   -2.5781    1.0494 H         1 <0>         0.0771
     30 H7         -8.5539   -1.9479   -0.4858 H         1 <0>         0.0763
     31 H8         -7.2789   -3.1899   -0.4982 H         1 <0>         0.0715
     32 H9          1.3210    2.6152   -0.8865 H         1 <0>         0.1288
     33 H10         1.3380    2.6056    0.8933 H         1 <0>         0.1287
     34 H11         3.9066   -1.3644    1.1123 H         1 <0>         0.1236
     35 H12         5.0531    0.0141    1.1087 H         1 <0>         0.1229
     36 H13         3.8846   -1.3520   -1.1971 H         1 <0>         0.1233
     37 H14         5.0311    0.0265   -1.2007 H         1 <0>         0.1233
     38 H15        -3.8794    3.4753   -0.9884 H         1 <0>         0.0788
     39 H16        -4.7516    3.3269    0.5561 H         1 <0>         0.0856
     40 H17        -2.9938    3.6068    0.5501 H         1 <0>         0.1005
@<TRIPOS>BOND
     1    1    2 1
     2    1   24 1
     3    1   25 1
     4    1   26 1
     5    2    7 ar
     6    2    3 ar
     7    3    4 ar
     8    3   27 1
     9    4   22 1
    10    4    5 ar
    11    5    6 ar
    12    5    9 1
    13    6    7 ar
    14    6   28 1
    15    7    8 1
    16    8   29 1
    17    8   30 1
    18    8   31 1
    19    9   10 1
    20   10   11 2
    21   10   22 1
    22   11   12 1
    23   12   13 2
    24   12   14 1
    25   14   15 1
    26   14   32 1
    27   14   33 1
    28   15   20 am
    29   15   16 am
    30   16   17 2
    31   16   18 1
    32   18   19 1
    33   18   34 1
    34   18   35 1
    35   19   20 1
    36   19   36 1
    37   19   37 1
    38   20   21 2
    39   22   23 1
    40   23   38 1
    41   23   39 1
    42   23   40 1
@<TRIPOS>MOLECULE
ZINC00296745
   38    40     0     0     0
SMALL
USER_CHARGES
(4R)-2-methyl-4-(2-nitrophenyl)-5-oxo-4,6,7,8-tetrahydro-1H-quinoline-3-carbonitrile
@<TRIPOS>ATOM
      1 C1         -0.6390    0.6589    5.3027 C.3       1 <0>        -0.1313
      2 C2         -1.1440    0.5199    3.8896 C.2       1 <0>         0.2377
      3 C3         -1.5713    1.6043    3.2244 C.3       1 <0>        -0.0266
      4 C4         -2.0786    1.5057    1.8170 C.3       1 <0>         0.0149
      5 H1         -2.9673    2.1274    1.7087 H         1 <0>         0.1409
      6 C5         -2.4260    0.0818    1.4627 C.2       1 <0>        -0.2614
      7 C6         -1.9626   -0.9472    2.2055 C.2       1 <0>         0.1785
      8 N1         -1.1641   -0.7137    3.2915 N.2       1 <0>        -0.5157
      9 C7         -2.3094   -2.3740    1.8600 C.3       1 <0>        -0.0778
     10 C8         -2.5054   -2.5034    0.3475 C.3       1 <0>        -0.1163
     11 C9         -3.6155   -1.5387   -0.0826 C.3       1 <0>        -0.1561
     12 C10        -3.2431   -0.1443    0.3418 C.2       1 <0>         0.3862
     13 O1         -3.6560    0.8040   -0.2962 O.2       1 <0>        -0.4384
     14 C11        -1.0102    2.0025    0.8774 C.ar      1 <0>        -0.0383
     15 C12         0.1758    1.3038    0.7479 C.ar      1 <0>        -0.1133
     16 C13         1.1534    1.7563   -0.1181 C.ar      1 <0>        -0.0697
     17 C14         0.9476    2.9105   -0.8507 C.ar      1 <0>        -0.1054
     18 C15        -0.2357    3.6122   -0.7169 C.ar      1 <0>        -0.0595
     19 C16        -1.2138    3.1593    0.1490 C.ar      1 <0>        -0.0125
     20 N2         -2.4812    3.9105    0.2920 N.pl3     1 <0>         0.0134
     21 O2         -2.4657    5.1274    0.3406 O.2       1 <0>        -0.1587
     22 O3         -3.5396    3.3116    0.3610 O.3       1 <0>        -0.1100
     23 C17        -1.5452    2.8809    3.8727 C.1       1 <0>         0.1993
     24 N3         -1.5245    3.8936    4.3869 N.1       1 <0>        -0.3639
     25 H2         -1.4686    0.5353    5.9987 H         1 <0>         0.1121
     26 H3          0.1145   -0.1046    5.4960 H         1 <0>         0.1054
     27 H4         -0.1977    1.6467    5.4352 H         1 <0>         0.0794
     28 H5         -0.5856    1.7721    3.2124 H         1 <0>         0.1456
     29 H6         -1.5002   -3.0314    2.1781 H         1 <0>         0.0984
     30 H7         -3.2294   -2.6575    2.3712 H         1 <0>         0.0995
     31 H8         -1.5785   -2.2474   -0.1656 H         1 <0>         0.0717
     32 H9         -2.7896   -3.5265    0.1014 H         1 <0>         0.0881
     33 H10        -3.7200   -1.5726   -1.0766 H         1 <0>         0.0870
     34 H11        -4.5537   -1.8276    0.3911 H         1 <0>         0.1030
     35 H12         0.3365    0.4020    1.3199 H         1 <0>         0.1422
     36 H13         2.0780    1.2080   -0.2226 H         1 <0>         0.1477
     37 H14         1.7114    3.2641   -1.5274 H         1 <0>         0.1519
     38 H15        -0.3964    4.5140   -1.2889 H         1 <0>         0.1519
@<TRIPOS>BOND
     1    1    2 1
     2    1   25 1
     3    1   26 1
     4    1   27 1
     5    2    8 2
     6    2    3 1
     7    3    4 1
     8    3   23 1
     9    3   28 1
    10    4    5 1
    11    4    6 1
    12    4   14 1
    13    6   12 1
    14    6    7 2
    15    7    9 1
    16    7    8 1
    17    9   10 1
    18    9   29 1
    19    9   30 1
    20   10   11 1
    21   10   31 1
    22   10   32 1
    23   11   12 1
    24   11   33 1
    25   11   34 1
    26   12   13 2
    27   14   19 ar
    28   14   15 ar
    29   15   16 ar
    30   15   35 1
    31   16   17 ar
    32   16   36 1
    33   17   18 ar
    34   17   37 1
    35   18   19 ar
    36   18   38 1
    37   19   20 1
    38   20   21 2
    39   20   22 1
    40   23   24 3
@<TRIPOS>MOLECULE
ZINC39297020
   39    41     0     0     0
SMALL
USER_CHARGES

@<TRIPOS>ATOM
      1 C1         -0.1737    1.5650    0.1067 C.3       1 <0>        -0.1511
      2 C2         -0.1277    0.0361    0.0695 C.3       1 <0>        -0.0900
      3 H1          0.3630   -0.2730   -0.8534 H         1 <0>         0.0769
      4 C3         -1.5531   -0.4909    0.0599 C.3       1 <0>        -0.1171
      5 C4         -2.1663   -0.5264    1.4654 C.3       1 <0>        -0.0483
      6 C5         -1.2657   -1.4098    2.2995 C.2       1 <0>         0.0954
      7 N1         -1.4247   -1.9189    3.4400 N.2       1 <0>        -0.2773
      8 O1         -0.2866   -2.6413    3.8826 O.3       1 <0>        -0.1872
      9 C6          0.8378   -2.1978    3.0869 C.3       1 <0>         0.0659
     10 H2          1.5334   -3.0162    2.9011 H         1 <0>         0.1358
     11 C7          0.1332   -1.7641    1.7876 C.3       1 <0>        -0.1201
     12 H3          0.1171   -2.5572    1.0401 H         1 <0>         0.1292
     13 C8          0.7042   -0.4535    1.2495 C.3       1 <0>        -0.1193
     14 C9          1.5484   -1.0158    3.7493 C.3       1 <0>        -0.1976
     15 C10         2.8555   -0.7281    3.0331 C.2       1 <0>         0.4942
     16 O2          2.9608    0.1888    2.2533 O.2       1 <0>        -0.4030
     17 O3          3.8968   -1.5458    3.3089 O.3       1 <0>        -0.3616
     18 C11         4.1791   -1.7419    4.6997 C.3       1 <0>         0.2977
     19 O4          2.9834   -2.1535    5.3730 O.3       1 <0>        -0.3612
     20 C12         1.9036   -1.3614    5.1842 C.2       1 <0>         0.4974
     21 O5          1.2519   -0.9484    6.1140 O.2       1 <0>        -0.4030
     22 C13         4.6825   -0.4315    5.3082 C.3       1 <0>        -0.2087
     23 C14         5.2507   -2.8228    4.8556 C.3       1 <0>        -0.1363
     24 H4          0.8417    1.9599    0.0752 H         1 <0>         0.0588
     25 H5         -0.7334    1.9327   -0.7533 H         1 <0>         0.0589
     26 H6         -0.6622    1.8916    1.0248 H         1 <0>         0.0549
     27 H7         -2.1632    0.1504   -0.5763 H         1 <0>         0.0826
     28 H8         -1.5545   -1.4999   -0.3524 H         1 <0>         0.0685
     29 H9         -2.1977    0.4789    1.8855 H         1 <0>         0.1006
     30 H10        -3.1707   -0.9478    1.4250 H         1 <0>         0.0998
     31 H11         1.7319   -0.6161    0.9246 H         1 <0>         0.0858
     32 H12         0.6908    0.2986    2.0383 H         1 <0>         0.0775
     33 H13         0.9069   -0.1348    3.7258 H         1 <0>         0.1495
     34 H14         3.9181    0.3376    5.1978 H         1 <0>         0.0630
     35 H15         4.8971   -0.5812    6.3663 H         1 <0>         0.1028
     36 H16         5.5909   -0.1175    4.7941 H         1 <0>         0.1023
     37 H17         6.1594   -2.5104    4.3412 H         1 <0>         0.0988
     38 H18         5.4652   -2.9717    5.9139 H         1 <0>         0.0994
     39 H19         4.8909   -3.7563    4.4230 H         1 <0>         0.0862
@<TRIPOS>BOND
     1    1    2 1
     2    1   24 1
     3    1   25 1
     4    1   26 1
     5    2    3 1
     6    2   13 1
     7    2    4 1
     8    4    5 1
     9    4   27 1
    10    4   28 1
    11    5    6 1
    12    5   29 1
    13    5   30 1
    14    6   11 1
    15    6    7 2
    16    7    8 1
    17    8    9 1
    18    9   10 1
    19    9   11 1
    20    9   14 1
    21   11   12 1
    22   11   13 1
    23   13   31 1
    24   13   32 1
    25   14   20 1
    26   14   15 1
    27   14   33 1
    28   15   16 2
    29   15   17 1
    30   17   18 1
    31   18   19 1
    32   18   22 1
    33   18   23 1
    34   19   20 1
    35   20   21 2
    36   22   34 1
    37   22   35 1
    38   22   36 1
    39   23   37 1
    40   23   38 1
    41   23   39 1
@<TRIPOS>MOLECULE
ZINC52224639
   29    30     0     0     0
SMALL
USER_CHARGES

@<TRIPOS>ATOM
      1 C1          0.0624    1.4776    0.3766 C.3       1 <0>        -0.1420
      2 C2          0.0411   -0.0160    0.1774 C.ar      1 <0>         0.0071
      3 C3          0.4246   -0.5575   -1.0343 C.ar      1 <0>        -0.1149
      4 C4          0.4054   -1.9277   -1.2177 C.ar      1 <0>        -0.0244
      5 C5          0.0025   -2.7602   -0.1895 C.ar      1 <0>        -0.0523
      6 C6         -0.3820   -2.2246    1.0240 C.ar      1 <0>         0.0087
      7 C7         -0.3583   -0.8493    1.2131 C.ar      1 <0>         0.0998
      8 N1         -0.7426   -0.3029    2.4462 N.pl3     1 <0>        -0.2459
      9 C8         -0.2135   -0.6189    3.6598 C.2       1 <0>        -0.0145
     10 C9         -0.8750    0.1392    4.5654 C.2       1 <0>        -0.0235
     11 N2         -1.7600    0.8690    3.8772 N.2       1 <0>        -0.2357
     12 N3         -1.6533    0.5889    2.6265 N.2       1 <0>        -0.0612
     13 C10        -0.6571    0.1576    6.0565 C.3       1 <0>         0.0042
     14 Br1         0.7005    1.5074    6.5038 Br        1 <0>        -0.1340
     15 C11        -0.8214   -3.1324    2.1438 C.3       1 <0>        -0.1437
     16 N4         -0.0172   -4.2266   -0.3900 N.pl3     1 <0>         0.0375
     17 O1          0.2106   -4.6903   -1.4830 O.2       1 <0>        -0.1491
     18 O2         -0.2610   -4.9605    0.5392 O.3       1 <0>        -0.1500
     19 H1          1.0467    1.7829    0.7316 H         1 <0>         0.0895
     20 H2         -0.1523    1.9735   -0.5701 H         1 <0>         0.0912
     21 H3         -0.6919    1.7568    1.1123 H         1 <0>         0.0925
     22 H4          0.7394    0.0902   -1.8392 H         1 <0>         0.1641
     23 H5          0.7053   -2.3487   -2.1660 H         1 <0>         0.1664
     24 H6          0.5740   -1.3305    3.8598 H         1 <0>         0.1977
     25 H7         -1.5933    0.4039    6.5575 H         1 <0>         0.1238
     26 H8         -0.3160   -0.8239    6.3859 H         1 <0>         0.1226
     27 H9          0.0544   -3.4996    2.6788 H         1 <0>         0.1008
     28 H10        -1.4610   -2.5785    2.8308 H         1 <0>         0.0730
     29 H11        -1.3753   -3.9758    1.7316 H         1 <0>         0.1126
@<TRIPOS>BOND
     1    1    2 1
     2    1   19 1
     3    1   20 1
     4    1   21 1
     5    2    7 ar
     6    2    3 ar
     7    3    4 ar
     8    3   22 1
     9    4    5 ar
    10    4   23 1
    11    5    6 ar
    12    5   16 1
    13    6    7 ar
    14    6   15 1
    15    7    8 1
    16    8   12 1
    17    8    9 1
    18    9   10 2
    19    9   24 1
    20   10   11 1
    21   10   13 1
    22   11   12 2
    23   13   14 1
    24   13   25 1
    25   13   26 1
    26   15   27 1
    27   15   28 1
    28   15   29 1
    29   16   17 2
    30   16   18 1
@<TRIPOS>MOLECULE
ZINC61538635
   40    42     0     0     0
SMALL
USER_CHARGES

@<TRIPOS>ATOM
      1 C1          0.0484    1.5099    0.0351 C.3       1 <0>        -0.1510
      2 C2         -0.0042   -0.0189    0.0029 C.3       1 <0>         0.1447
      3 C3         -1.4643   -0.4856    0.0103 C.3       1 <0>         0.0578
      4 O1         -2.0555   -0.1621    1.2711 O.3       1 <0>        -0.3750
      5 C4         -1.4477   -0.8162    2.3876 C.3       1 <0>         0.0476
      6 C5          0.0133   -0.3664    2.5020 C.3       1 <0>         0.0894
      7 N1          0.6630   -0.5630    1.1963 N.pl3     1 <0>        -0.5642
      8 C6          1.8627   -1.2372    1.0942 C.ar      1 <0>         0.6456
      9 N2          2.3899   -1.8226    2.1644 N.ar      1 <0>        -0.6494
     10 C7          3.5449   -2.4711    2.0619 C.ar      1 <0>         0.6606
     11 N3          4.1701   -2.5326    0.8886 N.ar      1 <0>        -0.6278
     12 C8          3.6427   -1.9489   -0.1749 C.ar      1 <0>         0.4660
     13 N4          2.4901   -1.3065   -0.0772 N.ar      1 <0>        -0.6117
     14 Cl1         4.4617   -2.0309   -1.7034 Cl        1 <0>         0.0364
     15 N5          4.0959   -3.0800    3.1710 N.pl3     1 <0>        -0.5765
     16 C9          3.5110   -3.0945    4.5198 C.3       1 <0>         0.1227
     17 C10         4.4860   -3.8663    5.4337 C.3       1 <0>        -0.1339
     18 C11         5.8348   -3.7558    4.6749 C.3       1 <0>        -0.1347
     19 C12         5.3654   -3.8290    3.1981 C.3       1 <0>         0.1183
     20 C13         0.6953   -0.5320   -1.2574 C.3       1 <0>        -0.1320
     21 H1          1.0879    1.8375    0.0490 H         1 <0>         0.0598
     22 H2         -0.4466    1.9091   -0.8502 H         1 <0>         0.0732
     23 H3         -0.4588    1.8721    0.9294 H         1 <0>         0.0637
     24 H4         -2.0111    0.0166   -0.7878 H         1 <0>         0.1103
     25 H5         -1.5027   -1.5640   -0.1438 H         1 <0>         0.0563
     26 H6         -1.9825   -0.5518    3.2998 H         1 <0>         0.1103
     27 H7         -1.4860   -1.8957    2.2421 H         1 <0>         0.0561
     28 H8          0.0525    0.6877    2.7765 H         1 <0>         0.0785
     29 H9          0.5228   -0.9626    3.2590 H         1 <0>         0.1085
     30 H10         3.3917   -2.0738    4.8831 H         1 <0>         0.0717
     31 H11         2.5446   -3.5982    4.4993 H         1 <0>         0.0708
     32 H12         4.5542   -3.3920    6.4127 H         1 <0>         0.0873
     33 H13         4.1816   -4.9086    5.5293 H         1 <0>         0.0798
     34 H14         6.3250   -2.8054    4.8859 H         1 <0>         0.0787
     35 H15         6.4891   -4.5933    4.9170 H         1 <0>         0.0901
     36 H16         5.2012   -4.8647    2.9007 H         1 <0>         0.0724
     37 H17         6.0983   -3.3571    2.5437 H         1 <0>         0.0860
     38 H18         1.6860   -0.0837   -1.3312 H         1 <0>         0.0967
     39 H19         0.7903   -1.6166   -1.2041 H         1 <0>         0.0629
     40 H20         0.1078   -0.2615   -2.1347 H         1 <0>         0.0543
@<TRIPOS>BOND
     1    1    2 1
     2    1   21 1
     3    1   22 1
     4    1   23 1
     5    2    7 1
     6    2    3 1
     7    2   20 1
     8    3    4 1
     9    3   24 1
    10    3   25 1
    11    4    5 1
    12    5    6 1
    13    5   26 1
    14    5   27 1
    15    6    7 1
    16    6   28 1
    17    6   29 1
    18    7    8 1
    19    8   13 ar
    20    8    9 ar
    21    9   10 ar
    22   10   11 ar
    23   10   15 1
    24   11   12 ar
    25   12   13 ar
    26   12   14 1
    27   15   19 1
    28   15   16 1
    29   16   17 1
    30   16   30 1
    31   16   31 1
    32   17   18 1
    33   17   32 1
    34   17   33 1
    35   18   19 1
    36   18   34 1
    37   18   35 1
    38   19   36 1
    39   19   37 1
    40   20   38 1
    41   20   39 1
    42   20   40 1
@<TRIPOS>MOLECULE
ZINC19685223
   37    38     0     0     0
SMALL
USER_CHARGES
4-[(3R)-3-methyl-1-piperidyl]piperidine-4-carbonitrile
@<TRIPOS>ATOM
      1 C1         -4.1810    1.3531    2.6268 C.3       1 <0>        -0.1533
      2 C2         -2.7323    1.8440    2.5926 C.3       1 <0>        -0.0883
      3 H1         -2.1719    1.3832    3.4194 H         1 <0>         0.0837
      4 C3         -2.7053    3.3679    2.7395 C.3       1 <0>        -0.1221
      5 C4         -1.2572    3.8564    2.6440 C.3       1 <0>        -0.1211
      6 C5         -0.6596    3.4075    1.3086 C.3       1 <0>         0.0471
      7 N1         -0.7079    1.9427    1.2168 N.3       1 <0>        -0.5169
      8 C6         -2.0919    1.4535    1.2587 C.3       1 <0>         0.0512
      9 C7         -0.0179    1.4678    0.0101 C.3       1 <0>         0.2104
     10 C8         -0.7514    1.9764   -1.2340 C.3       1 <0>        -0.1828
     11 C9          0.0065    1.5285   -2.4858 C.3       1 <0>        -0.0006
     12 N2          1.3739    2.0627   -2.4491 N.4       1 <0>        -0.5345
     13 C10         2.1131    1.5504   -1.2883 C.3       1 <0>        -0.0075
     14 C11         1.4181    1.9991   -0.0007 C.3       1 <0>        -0.1418
     15 C12         0.0021   -0.0041    0.0020 C.1       1 <0>         0.1882
     16 N3          0.0175   -1.1399   -0.0042 N.1       1 <0>        -0.3760
     17 H2         -4.6408    1.6341    3.5858 H         1 <0>         0.0661
     18 H3         -4.1999    0.2587    2.5177 H         1 <0>         0.0578
     19 H4         -4.7438    1.8136    1.8014 H         1 <0>         0.0562
     20 H5         -3.3029    3.8243    1.9367 H         1 <0>         0.0629
     21 H6         -3.1267    3.6497    3.7157 H         1 <0>         0.0740
     22 H7         -1.2358    4.9544    2.7067 H         1 <0>         0.0783
     23 H8         -0.6712    3.4304    3.4717 H         1 <0>         0.0781
     24 H9         -1.2385    3.8454    0.4821 H         1 <0>         0.0455
     25 H10         0.3855    3.7442    1.2429 H         1 <0>         0.0865
     26 H11        -2.0964    0.3583    1.1565 H         1 <0>         0.0766
     27 H12        -2.6637    1.9012    0.4325 H         1 <0>         0.0480
     28 H13        -1.7708    1.5635   -1.2530 H         1 <0>         0.1218
     29 H14        -0.8012    3.0749   -1.2068 H         1 <0>         0.1143
     30 H15         0.0434    0.4296   -2.5185 H         1 <0>         0.1249
     31 H16        -0.5097    1.9048   -3.3813 H         1 <0>         0.1434
     32 H17         1.9080    1.7663   -3.3639 H         1 <0>         0.4600
     33 H18         2.1395    0.4514   -1.3263 H         1 <0>         0.1251
     34 H19         3.1406    1.9427   -1.3056 H         1 <0>         0.1474
     35 H20         1.4028    3.0980    0.0461 H         1 <0>         0.1150
     36 H21         1.9623    1.6026    0.8692 H         1 <0>         0.1305
     37 H22         1.3372    3.1602   -2.3853 H         1 <0>         0.4521
@<TRIPOS>BOND
     1    1    2 1
     2    1   17 1
     3    1   18 1
     4    1   19 1
     5    2    3 1
     6    2    8 1
     7    2    4 1
     8    4    5 1
     9    4   20 1
    10    4   21 1
    11    5    6 1
    12    5   22 1
    13    5   23 1
    14    6    7 1
    15    6   24 1
    16    6   25 1
    17    7    8 1
    18    7    9 1
    19    8   26 1
    20    8   27 1
    21    9   14 1
    22    9   10 1
    23    9   15 1
    24   10   11 1
    25   10   28 1
    26   10   29 1
    27   11   12 1
    28   11   30 1
    29   11   31 1
    30   12   13 1
    31   12   32 1
    32   12   37 1
    33   13   14 1
    34   13   33 1
    35   13   34 1
    36   14   35 1
    37   14   36 1
    38   15   16 3
@<TRIPOS>MOLECULE
ZINC40458702
   38    39     0     0     0
SMALL
USER_CHARGES

@<TRIPOS>ATOM
      1 C1         -0.0554    1.5363    0.0472 C.3       1 <0>        -0.1439
      2 C2          0.2997    0.0707   -0.2110 C.3       1 <0>         0.1399
      3 H1          0.8806   -0.0081   -1.1299 H         1 <0>         0.0864
      4 C3         -0.9848   -0.7534   -0.3431 C.3       1 <0>        -0.1341
      5 C4         -0.6250   -2.2362   -0.4618 C.3       1 <0>        -0.1280
      6 C5          0.1103   -2.6872    0.8024 C.3       1 <0>        -0.1313
      7 C6          1.4073   -1.8850    0.9475 C.3       1 <0>         0.1199
      8 H2          1.8851   -2.1312    1.8958 H         1 <0>         0.0925
      9 N1          1.0861   -0.4513    0.9151 N.am      1 <0>        -0.5739
     10 C7          1.5016    0.3685    1.9009 C.2       1 <0>         0.5061
     11 O1          1.1429    1.5269    1.9178 O.2       1 <0>        -0.5197
     12 C8          2.4117   -0.1544    2.9823 C.3       1 <0>        -0.0047
     13 H3          3.2267   -0.7250    2.5369 H         1 <0>         0.1615
     14 C9          1.6132   -1.0496    3.9531 C.3       1 <0>        -0.1330
     15 C10         2.2188   -0.6925    5.3360 C.3       1 <0>        -0.1407
     16 C11         2.5061    0.8207    5.1705 C.3       1 <0>        -0.0058
     17 N2          2.9561    0.9693    3.7664 N.4       1 <0>        -0.5020
     18 C12         2.3526   -2.2250   -0.2065 C.3       1 <0>        -0.1722
     19 H4          0.8580    2.1297    0.0885 H         1 <0>         0.0713
     20 H5         -0.6911    1.9035   -0.7585 H         1 <0>         0.0591
     21 H6         -0.5862    1.6199    0.9956 H         1 <0>         0.0718
     22 H7         -1.6080   -0.5997    0.5379 H         1 <0>         0.0705
     23 H8         -1.5290   -0.4387   -1.2336 H         1 <0>         0.0857
     24 H9         -1.5361   -2.8226   -0.5807 H         1 <0>         0.0765
     25 H10         0.0184   -2.3854   -1.3289 H         1 <0>         0.0725
     26 H11        -0.5231   -2.5152    1.6726 H         1 <0>         0.0711
     27 H12         0.3457   -3.7488    0.7272 H         1 <0>         0.0872
     28 H13         0.5522   -0.8019    3.9214 H         1 <0>         0.1048
     29 H14         1.7711   -2.1034    3.7237 H         1 <0>         0.1228
     30 H15         1.4983   -0.8680    6.1349 H         1 <0>         0.1228
     31 H16         3.1398   -1.2476    5.5140 H         1 <0>         0.1044
     32 H17         1.5992    1.4002    5.3430 H         1 <0>         0.1363
     33 H18         3.2941    1.1344    5.8552 H         1 <0>         0.1428
     34 H19         3.9642    0.9538    3.7272 H         1 <0>         0.4344
     35 H20         1.8750   -1.9734   -1.1535 H         1 <0>         0.0726
     36 H21         3.2746   -1.6533   -0.1014 H         1 <0>         0.0601
     37 H22         2.5815   -3.2905   -0.1868 H         1 <0>         0.0812
     38 H23         2.6162    1.8418    3.3906 H         1 <0>         0.4355
@<TRIPOS>BOND
     1    1    2 1
     2    1   19 1
     3    1   20 1
     4    1   21 1
     5    2    3 1
     6    2    9 1
     7    2    4 1
     8    4    5 1
     9    4   22 1
    10    4   23 1
    11    5    6 1
    12    5   24 1
    13    5   25 1
    14    6    7 1
    15    6   26 1
    16    6   27 1
    17    7    8 1
    18    7    9 1
    19    7   18 1
    20    9   10 am
    21   10   11 2
    22   10   12 1
    23   12   13 1
    24   12   17 1
    25   12   14 1
    26   14   15 1
    27   14   28 1
    28   14   29 1
    29   15   16 1
    30   15   30 1
    31   15   31 1
    32   16   17 1
    33   16   32 1
    34   16   33 1
    35   17   34 1
    36   17   38 1
    37   18   35 1
    38   18   36 1
    39   18   37 1
@<TRIPOS>MOLECULE
ZINC50565458
   41    42     0     0     0
SMALL
USER_CHARGES

@<TRIPOS>ATOM
      1 C1          0.4863    1.5657    0.0446 C.3       1 <0>        -0.1519
      2 C2          0.4224    0.0376    0.0011 C.3       1 <0>        -0.1009
      3 H1         -0.6087   -0.2790   -0.1562 H         1 <0>         0.0731
      4 C3          1.2956   -0.4778   -1.1451 C.3       1 <0>        -0.1207
      5 C4          1.2064   -2.0042   -1.2100 C.3       1 <0>        -0.1376
      6 C5          1.7297   -2.5985    0.1014 C.3       1 <0>         0.0958
      7 N1          0.9912   -1.9980    1.2206 N.am      1 <0>        -0.6023
      8 C6          0.9360   -0.5335    1.3266 C.3       1 <0>         0.1462
      9 H2          1.9337   -0.1444    1.5299 H         1 <0>         0.0769
     10 C7         -0.0134   -0.1359    2.4586 C.3       1 <0>        -0.1411
     11 C8          0.3755   -2.7756    2.1330 C.2       1 <0>         0.5163
     12 O1         -0.1686   -2.2705    3.0921 O.2       1 <0>        -0.5185
     13 C9          0.3630   -4.2728    1.9616 C.3       1 <0>        -0.1258
     14 C10        -0.4283   -4.6374    0.7021 C.3       1 <0>        -0.1514
     15 C11        -0.5046   -6.1606    0.5774 C.3       1 <0>        -0.0042
     16 N2         -1.1758   -6.7187    1.7575 N.4       1 <0>        -0.5065
     17 C12        -0.3852   -6.4346    2.9611 C.3       1 <0>        -0.0063
     18 C13        -0.3043   -4.9219    3.1775 C.3       1 <0>        -0.1290
     19 H3          1.5175    1.8818    0.2019 H         1 <0>         0.0595
     20 H4          0.1218    1.9715   -0.8991 H         1 <0>         0.0625
     21 H5         -0.1349    1.9323    0.8618 H         1 <0>         0.0634
     22 H6          0.9468   -0.0533   -2.0865 H         1 <0>         0.0728
     23 H7          2.3306   -0.1814   -0.9747 H         1 <0>         0.0691
     24 H8          0.1681   -2.3021   -1.3557 H         1 <0>         0.0663
     25 H9          1.8101   -2.3689   -2.0411 H         1 <0>         0.0820
     26 H10         1.5770   -3.6778    0.1001 H         1 <0>         0.0850
     27 H11         2.7922   -2.3778    0.2043 H         1 <0>         0.0782
     28 H12        -0.9749   -0.6291    2.3165 H         1 <0>         0.0643
     29 H13         0.4133   -0.4401    3.4144 H         1 <0>         0.0749
     30 H14        -0.1548    0.9449    2.4515 H         1 <0>         0.0551
     31 H15         1.3859   -4.6376    1.8691 H         1 <0>         0.1126
     32 H16        -1.4356   -4.2271    0.7737 H         1 <0>         0.0965
     33 H17         0.0720   -4.2251   -0.1741 H         1 <0>         0.1226
     34 H18        -1.0672   -6.4236   -0.3183 H         1 <0>         0.1382
     35 H19         0.5031   -6.5697    0.5057 H         1 <0>         0.1335
     36 H20        -2.0903   -6.3029    1.8511 H         1 <0>         0.4296
     37 H21        -0.8596   -6.8999    3.8251 H         1 <0>         0.1385
     38 H22         0.6200   -6.8379    2.8386 H         1 <0>         0.1320
     39 H23         0.2846   -4.7130    4.0706 H         1 <0>         0.1189
     40 H24        -1.3090   -4.5176    3.3004 H         1 <0>         0.0990
     41 H25        -1.2722   -7.7171    1.6475 H         1 <0>         0.4336
@<TRIPOS>BOND
     1    1    2 1
     2    1   19 1
     3    1   20 1
     4    1   21 1
     5    2    3 1
     6    2    8 1
     7    2    4 1
     8    4    5 1
     9    4   22 1
    10    4   23 1
    11    5    6 1
    12    5   24 1
    13    5   25 1
    14    6    7 1
    15    6   26 1
    16    6   27 1
    17    7    8 1
    18    7   11 am
    19    8    9 1
    20    8   10 1
    21   10   28 1
    22   10   29 1
    23   10   30 1
    24   11   12 2
    25   11   13 1
    26   13   18 1
    27   13   14 1
    28   13   31 1
    29   14   15 1
    30   14   32 1
    31   14   33 1
    32   15   16 1
    33   15   34 1
    34   15   35 1
    35   16   17 1
    36   16   36 1
    37   16   41 1
    38   17   18 1
    39   17   37 1
    40   17   38 1
    41   18   39 1
    42   18   40 1
@<TRIPOS>MOLECULE
ZINC54931626
   32    34     0     0     0
SMALL
USER_CHARGES

@<TRIPOS>ATOM
      1 C1         -0.0189    1.5448    0.0105 C.3       1 <0>        -0.1200
      2 C2          1.4652    2.0023   -0.0012 C.3       1 <0>        -0.1169
      3 C3          2.2019    0.7966    0.5919 C.3       1 <0>         0.0224
      4 H1          2.0567    0.7556    1.6715 H         1 <0>         0.0698
      5 C4          1.4732   -0.3877   -0.1010 C.3       1 <0>         0.0898
      6 H2          1.7669   -0.4353   -1.1496 H         1 <0>         0.0739
      7 C5          0.0021   -0.0041    0.0020 C.3       1 <0>        -0.1198
      8 O1          1.8821   -1.5684    0.5612 O.3       1 <0>        -0.3632
      9 C6          3.2927   -1.7925    0.3831 C.3       1 <0>         0.0598
     10 C7          4.1139   -0.5926    0.8467 C.3       1 <0>         0.0117
     11 N1          3.6175    0.6839    0.2656 N.3       1 <0>        -0.5019
     12 C8          4.3692    1.8377    0.7771 C.3       1 <0>         0.0243
     13 C9          4.3236    3.0667   -0.1487 C.3       1 <0>         0.0167
     14 N2          5.7633    3.2245    0.1536 N.4       1 <0>        -0.5324
     15 C10         5.8759    1.7827    0.4664 C.3       1 <0>         0.0129
     16 H3         -0.5152    1.9074    0.9107 H         1 <0>         0.0751
     17 H4         -0.5323    1.9170   -0.8761 H         1 <0>         0.0784
     18 H5          1.8008    2.1961   -1.0199 H         1 <0>         0.0790
     19 H6          1.6018    2.8838    0.6251 H         1 <0>         0.0683
     20 H7         -0.4255   -0.3925    0.9263 H         1 <0>         0.0812
     21 H8         -0.5484   -0.3843   -0.8585 H         1 <0>         0.0830
     22 H9          3.5891   -2.6701    0.9577 H         1 <0>         0.1102
     23 H10         3.4937   -1.9751   -0.6725 H         1 <0>         0.0660
     24 H11         4.0607   -0.5231    1.9332 H         1 <0>         0.0557
     25 H12         5.1530   -0.7366    0.5508 H         1 <0>         0.0937
     26 H13         4.1442    2.0630    1.8196 H         1 <0>         0.1075
     27 H14         4.1178    2.8238   -1.1911 H         1 <0>         0.1603
     28 H15         3.7036    3.8792    0.2303 H         1 <0>         0.1421
     29 H16         6.3072    3.4963   -0.6516 H         1 <0>         0.4303
     30 H17         6.4963    1.5693    1.3369 H         1 <0>         0.1426
     31 H18         6.1241    1.1643   -0.3961 H         1 <0>         0.1591
     32 H19         5.9353    3.8154    0.9532 H         1 <0>         0.4406
@<TRIPOS>BOND
     1    1    7 1
     2    1    2 1
     3    1   16 1
     4    1   17 1
     5    2    3 1
     6    2   18 1
     7    2   19 1
     8    3    4 1
     9    3   11 1
    10    3    5 1
    11    5    6 1
    12    5    7 1
    13    5    8 1
    14    7   20 1
    15    7   21 1
    16    8    9 1
    17    9   10 1
    18    9   22 1
    19    9   23 1
    20   10   11 1
    21   10   24 1
    22   10   25 1
    23   11   12 1
    24   12   15 1
    25   12   13 1
    26   12   26 1
    27   13   14 1
    28   13   27 1
    29   13   28 1
    30   14   15 1
    31   14   29 1
    32   14   32 1
    33   15   30 1
    34   15   31 1
@<TRIPOS>MOLECULE
ZINC62948558
   34    35     0     0     0
SMALL
USER_CHARGES

@<TRIPOS>ATOM
      1 C1         -0.0187    1.5258    0.0104 C.3       1 <0>        -0.1839
      2 C2          0.0021   -0.0041    0.0020 C.3       1 <0>         0.0253
      3 H1          0.5123   -0.3551   -0.8949 H         1 <0>         0.1404
      4 C3         -1.4337   -0.5331    0.0113 C.3       1 <0>        -0.1388
      5 C4         -1.4079   -2.0642    0.0026 C.3       1 <0>        -0.1360
      6 C5         -0.5995   -2.5582    1.2058 C.3       1 <0>         0.0638
      7 H2         -1.0933   -2.2500    2.1274 H         1 <0>         0.0653
      8 C6          0.8054   -1.9542    1.1523 C.3       1 <0>        -0.0064
      9 N1          0.7134   -0.4897    1.1906 N.4       1 <0>        -0.5013
     10 N2         -0.5062   -4.0237    1.1658 N.3       1 <0>        -0.5257
     11 C7         -1.8422   -4.6358    1.1240 C.3       1 <0>         0.0151
     12 C8         -1.6979   -6.1566    1.0230 C.3       1 <0>         0.0604
     13 O1         -0.9194   -6.6308    2.1250 O.3       1 <0>        -0.3780
     14 C9          0.3881   -6.0557    2.1959 C.3       1 <0>         0.0612
     15 C10         0.2650   -4.5339    2.3088 C.3       1 <0>         0.0072
     16 H3          1.0039    1.9031    0.0027 H         1 <0>         0.0830
     17 H4         -0.5459    1.8868   -0.8726 H         1 <0>         0.1075
     18 H5         -0.5289    1.8773    0.9072 H         1 <0>         0.0813
     19 H6         -1.9449   -0.1828    0.9081 H         1 <0>         0.0885
     20 H7         -1.9601   -0.1729   -0.8726 H         1 <0>         0.1167
     21 H8         -2.4267   -2.4464    0.0663 H         1 <0>         0.0960
     22 H9         -0.9424   -2.4157   -0.9182 H         1 <0>         0.0937
     23 H10         1.3836   -2.3040    2.0074 H         1 <0>         0.1329
     24 H11         1.2983   -2.2632    0.2305 H         1 <0>         0.1416
     25 H12         1.6423   -0.0961    1.2096 H         1 <0>         0.4329
     26 H13        -2.3877   -4.3814    2.0328 H         1 <0>         0.0524
     27 H14        -2.3862   -4.2633    0.2560 H         1 <0>         0.0965
     28 H15        -2.6850   -6.6183    1.0492 H         1 <0>         0.1072
     29 H16        -1.1999   -6.4136    0.0881 H         1 <0>         0.0654
     30 H17         0.9098   -6.4445    3.0704 H         1 <0>         0.1057
     31 H18         0.9468   -6.3099    1.2952 H         1 <0>         0.0649
     32 H19         1.2592   -4.0871    2.3056 H         1 <0>         0.0873
     33 H20        -0.2468   -4.2780    3.2365 H         1 <0>         0.0530
     34 H21         0.2132   -0.2063    2.0198 H         1 <0>         0.4251
@<TRIPOS>BOND
     1    1    2 1
     2    1   16 1
     3    1   17 1
     4    1   18 1
     5    2    3 1
     6    2    9 1
     7    2    4 1
     8    4    5 1
     9    4   19 1
    10    4   20 1
    11    5    6 1
    12    5   21 1
    13    5   22 1
    14    6    7 1
    15    6    8 1
    16    6   10 1
    17    8    9 1
    18    8   23 1
    19    8   24 1
    20    9   25 1
    21    9   34 1
    22   10   15 1
    23   10   11 1
    24   11   12 1
    25   11   26 1
    26   11   27 1
    27   12   13 1
    28   12   28 1
    29   12   29 1
    30   13   14 1
    31   14   15 1
    32   14   30 1
    33   14   31 1
    34   15   32 1
    35   15   33 1
@<TRIPOS>MOLECULE
ZINC08737763
   29    30     0     0     0
SMALL
USER_CHARGES
(4R,7R)-4,5,7-trimethyl-6,7-dihydro-4H-thiazolo[5,4-c]pyridin-2-amine
@<TRIPOS>ATOM
      1 C1         -1.6596    2.5851    1.4335 C.3       1 <0>        -0.1570
      2 C2         -1.3555    2.0844    0.0201 C.3       1 <0>        -0.0393
      3 H1         -1.3206    2.9275   -0.6699 H         1 <0>         0.1351
      4 C3         -2.4409    1.0984   -0.4171 C.3       1 <0>         0.0035
      5 C4         -1.1726   -0.9208    0.0119 C.3       1 <0>         0.1544
      6 H2         -1.3093   -1.3545   -0.9787 H         1 <0>         0.1462
      7 C5          0.0021   -0.0041    0.0020 C.2       1 <0>        -0.3489
      8 C6         -0.0164    1.3550    0.0095 C.2       1 <0>         0.1549
      9 N1          1.1695    1.9561    0.0014 N.2       1 <0>        -0.5894
     10 C7          2.2989    1.2758   -0.0143 C.2       1 <0>         0.3824
     11 S1          1.7347   -0.3690   -0.0184 S.3       1 <0>         0.1266
     12 N2          3.6013    1.7500   -0.0247 N.pl3     1 <0>        -0.7813
     13 C8         -0.9506   -2.0339    1.0379 C.3       1 <0>        -0.1821
     14 C9         -3.5901   -0.9320    0.2322 C.3       1 <0>        -0.0436
     15 H3         -0.8735    3.2689    1.7537 H         1 <0>         0.0875
     16 H4         -2.6173    3.1056    1.4364 H         1 <0>         0.0832
     17 H5         -1.7047    1.7375    2.1173 H         1 <0>         0.0511
     18 H6         -2.3013    0.8550   -1.4704 H         1 <0>         0.1349
     19 H7         -3.4207    1.5565   -0.2823 H         1 <0>         0.1416
     20 H8          4.3443    1.1266   -0.0365 H         1 <0>         0.4291
     21 H9          3.7697    2.7053   -0.0203 H         1 <0>         0.4252
     22 H10        -0.8263   -1.5957    2.0282 H         1 <0>         0.0837
     23 H11        -1.8120   -2.7017    1.0416 H         1 <0>         0.0894
     24 H12        -0.0553   -2.5972    0.7749 H         1 <0>         0.1046
     25 H13        -3.5343   -1.8065    0.8804 H         1 <0>         0.1250
     26 H14        -4.4539   -0.3282    0.5102 H         1 <0>         0.1264
     27 H15        -3.6903   -1.2540   -0.8044 H         1 <0>         0.1260
     28 N3         -2.3627   -0.1259    0.4058 N.4       1 <0>        -0.3959
     29 H16        -2.2752    0.1401    1.3937 H         1 <0>         0.4269
@<TRIPOS>BOND
     1    1    2 1
     2    1   15 1
     3    1   16 1
     4    1   17 1
     5    2    3 1
     6    2    8 1
     7    2    4 1
     8    4   18 1
     9    4   19 1
    10    4   28 1
    11    5    6 1
    12    5    7 1
    13    5   13 1
    14    5   28 1
    15    7   11 1
    16    7    8 2
    17    8    9 1
    18    9   10 2
    19   10   11 1
    20   10   12 1
    21   12   20 1
    22   12   21 1
    23   13   22 1
    24   13   23 1
    25   13   24 1
    26   14   25 1
    27   14   26 1
    28   14   27 1
    29   14   28 1
    30   28   29 1
@<TRIPOS>MOLECULE
ZINC37912906
   32    33     0     0     0
SMALL
USER_CHARGES

@<TRIPOS>ATOM
      1 C1          0.1629   -0.2982   -1.8030 C.3       1 <0>        -0.1549
      2 C2         -0.2593    0.0781   -0.3813 C.3       1 <0>        -0.1347
      3 C3         -1.6849   -0.4149   -0.1254 C.3       1 <0>         0.1562
      4 H1         -2.3506   -0.0449   -0.9051 H         1 <0>         0.0717
      5 C4         -1.7105   -1.9578   -0.1020 C.3       1 <0>        -0.1281
      6 C5         -2.7213   -2.2715    1.0325 C.3       1 <0>        -0.1340
      7 C6         -2.4296   -1.1265    2.0343 C.3       1 <0>         0.1271
      8 N1         -2.1470    0.0524    1.1898 N.pl3     1 <0>        -0.6899
      9 C7         -2.2917    1.3856    1.5741 C.ar      1 <0>         0.2497
     10 C8         -3.4483    2.0966    1.2657 C.ar      1 <0>        -0.1021
     11 C9         -3.5538    3.4143    1.6639 C.ar      1 <0>         0.0908
     12 N2         -2.5779    4.0029    2.3286 N.ar      1 <0>        -0.4074
     13 C10        -1.4639    3.3678    2.6421 C.ar      1 <0>         0.0301
     14 C11        -1.2803    2.0423    2.2851 C.ar      1 <0>         0.2023
     15 N3         -0.0992    1.3710    2.6256 N.pl3     1 <0>        -0.8290
     16 H2          1.1397    0.1347   -2.0185 H         1 <0>         0.0608
     17 H3          0.2191   -1.3833   -1.8901 H         1 <0>         0.0630
     18 H4         -0.5694    0.0858   -2.5131 H         1 <0>         0.0582
     19 H5          0.4196   -0.3860    0.3341 H         1 <0>         0.0653
     20 H6         -0.2233    1.1614   -0.2664 H         1 <0>         0.0548
     21 H7         -2.0650   -2.3520   -1.0544 H         1 <0>         0.0883
     22 H8         -0.7249   -2.3562    0.1385 H         1 <0>         0.0812
     23 H9         -3.7470   -2.2193    0.6673 H         1 <0>         0.0803
     24 H10        -2.5167   -3.2440    1.4802 H         1 <0>         0.0898
     25 H11        -3.3007   -0.9412    2.6627 H         1 <0>         0.0703
     26 H12        -1.5630   -1.3713    2.6484 H         1 <0>         0.0591
     27 H13        -4.2525    1.6236    0.7217 H         1 <0>         0.1822
     28 H14        -4.4482    3.9715    1.4275 H         1 <0>         0.2072
     29 H15        -0.6888    3.8863    3.1869 H         1 <0>         0.2017
     30 H16         0.0230    0.4436    2.3686 H         1 <0>         0.4215
     31 H17         0.5967    1.8334    3.1184 H         1 <0>         0.4164
     32 H18        -2.6820    4.9299    2.5946 H         1 <0>         0.4519
@<TRIPOS>BOND
     1    1    2 1
     2    1   16 1
     3    1   17 1
     4    1   18 1
     5    2    3 1
     6    2   19 1
     7    2   20 1
     8    3    4 1
     9    3    8 1
    10    3    5 1
    11    5    6 1
    12    5   21 1
    13    5   22 1
    14    6    7 1
    15    6   23 1
    16    6   24 1
    17    7    8 1
    18    7   25 1
    19    7   26 1
    20    8    9 1
    21    9   14 ar
    22    9   10 ar
    23   10   11 ar
    24   10   27 1
    25   11   12 ar
    26   11   28 1
    27   12   13 ar
    28   12   32 1
    29   13   14 ar
    30   13   29 1
    31   14   15 1
    32   15   30 1
    33   15   31 1
@<TRIPOS>MOLECULE
ZINC41043376
   29    30     0     0     0
SMALL
USER_CHARGES

@<TRIPOS>ATOM
      1 C1          0.0775    1.5426    0.0002 C.3       1 <0>        -0.1474
      2 C2          0.0606    0.0127   -0.0004 C.3       1 <0>        -0.1029
      3 H1          0.5335   -0.3808   -0.9002 H         1 <0>         0.0878
      4 C3         -1.3862   -0.5275    0.1491 C.3       1 <0>        -0.1299
      5 C4         -1.1730   -1.9115    0.7977 C.3       1 <0>         0.1216
      6 N1          0.1396   -1.8860    1.4593 N.pl3     1 <0>        -0.6818
      7 C5          0.7372   -0.5506    1.2741 C.3       1 <0>         0.1254
      8 C6          0.7225   -2.9473    2.1477 C.ar      1 <0>         0.3348
      9 C7          0.5362   -3.0644    3.5278 C.ar      1 <0>         0.2248
     10 C8          1.1244   -4.1285    4.1978 C.ar      1 <0>        -0.0802
     11 C9          1.8772   -5.0367    3.4649 C.ar      1 <0>        -0.0781
     12 C10         2.0178   -4.8574    2.1042 C.ar      1 <0>         0.0801
     13 N2          1.4433   -3.8393    1.4895 N.ar      1 <0>        -0.4183
     14 N3         -0.2314   -2.1229    4.2240 N.pl3     1 <0>        -0.8296
     15 H2          1.1089    1.8946   -0.0240 H         1 <0>         0.0631
     16 H3         -0.4531    1.9122   -0.8773 H         1 <0>         0.0690
     17 H4         -0.4111    1.9111    0.9022 H         1 <0>         0.0620
     18 H5         -1.9733    0.1182    0.8022 H         1 <0>         0.0854
     19 H6         -1.8631   -0.6278   -0.8259 H         1 <0>         0.0918
     20 H7         -1.9551   -2.1007    1.5330 H         1 <0>         0.0677
     21 H8         -1.1868   -2.6862    0.0311 H         1 <0>         0.0631
     22 H9          1.8141   -0.6332    1.1270 H         1 <0>         0.0713
     23 H10         0.5183    0.0849    2.1322 H         1 <0>         0.0720
     24 H11         0.9998   -4.2470    5.2640 H         1 <0>         0.1741
     25 H12         2.3485   -5.8755    3.9557 H         1 <0>         0.1865
     26 H13         2.6028   -5.5625    1.5325 H         1 <0>         0.2057
     27 H14        -0.7092   -1.4323    3.7385 H         1 <0>         0.4174
     28 H15        -0.2854   -2.1613    5.1917 H         1 <0>         0.4222
     29 H16         1.5563   -3.7413    0.5311 H         1 <0>         0.4427
@<TRIPOS>BOND
     1    1    2 1
     2    1   15 1
     3    1   16 1
     4    1   17 1
     5    2    3 1
     6    2    7 1
     7    2    4 1
     8    4    5 1
     9    4   18 1
    10    4   19 1
    11    5    6 1
    12    5   20 1
    13    5   21 1
    14    6    7 1
    15    6    8 1
    16    7   22 1
    17    7   23 1
    18    8   13 ar
    19    8    9 ar
    20    9   10 ar
    21    9   14 1
    22   10   11 ar
    23   10   24 1
    24   11   12 ar
    25   11   25 1
    26   12   13 ar
    27   12   26 1
    28   13   29 1
    29   14   27 1
    30   14   28 1
@<TRIPOS>MOLECULE
ZINC51733214
   37    37     0     0     0
SMALL
USER_CHARGES

@<TRIPOS>ATOM
      1 C1         -1.6860    0.4560   -0.7058 C.3       1 <0>        -0.1516
      2 C2         -1.2217   -1.0012   -0.6628 C.3       1 <0>        -0.0957
      3 H1         -2.0739   -1.6590   -0.8335 H         1 <0>         0.0799
      4 C3         -0.1718   -1.2341   -1.7516 C.3       1 <0>        -0.1347
      5 C4          0.2653   -2.7022   -1.7282 C.3       1 <0>         0.0702
      6 N1          0.7178   -3.0393   -0.3716 N.am      1 <0>        -0.5750
      7 C5         -0.1804   -2.7708    0.7598 C.3       1 <0>         0.1354
      8 H2          0.3430   -2.9653    1.6959 H         1 <0>         0.1070
      9 C6         -0.6122   -1.3019    0.7084 C.3       1 <0>        -0.1270
     10 C7         -1.4113   -3.6743    0.6631 C.3       1 <0>        -0.1662
     11 C8          1.9334   -3.5849   -0.1689 C.2       1 <0>         0.5088
     12 O1          2.3384   -3.7607    0.9607 O.2       1 <0>        -0.5297
     13 C9          2.7892   -3.9766   -1.3458 C.3       1 <0>         0.0397
     14 C10         1.9808   -4.8689   -2.2898 C.3       1 <0>        -0.1943
     15 C11         3.2369   -2.7182   -2.0921 C.3       1 <0>        -0.1909
     16 N2          3.9699   -4.7099   -0.8701 N.4       1 <0>        -0.6175
     17 H3         -0.8339    1.1140   -0.5351 H         1 <0>         0.0563
     18 H4         -2.1207    0.6702   -1.6821 H         1 <0>         0.0604
     19 H5         -2.4342    0.6220    0.0693 H         1 <0>         0.0614
     20 H6         -0.5993   -0.9973   -2.7259 H         1 <0>         0.0880
     21 H7          0.6914   -0.5945   -1.5673 H         1 <0>         0.0716
     22 H8         -0.5765   -3.3385   -2.0013 H         1 <0>         0.0890
     23 H9          1.0828   -2.8513   -2.4336 H         1 <0>         0.1032
     24 H10         0.2552   -0.6617    0.8692 H         1 <0>         0.0707
     25 H11        -1.3532   -1.1133    1.4852 H         1 <0>         0.0867
     26 H12        -1.0987   -4.7182    0.6885 H         1 <0>         0.0597
     27 H13        -2.0762   -3.4736    1.5032 H         1 <0>         0.0802
     28 H14        -1.9360   -3.4748   -0.2713 H         1 <0>         0.0665
     29 H15         1.2159   -4.2726   -2.7872 H         1 <0>         0.1229
     30 H16         2.6452   -5.3038   -3.0365 H         1 <0>         0.0985
     31 H17         1.5055   -5.6660   -1.7181 H         1 <0>         0.0918
     32 H18         3.9864   -2.1923   -1.5006 H         1 <0>         0.0922
     33 H19         3.6651   -2.9993   -3.0542 H         1 <0>         0.1034
     34 H20         2.3782   -2.0664   -2.2530 H         1 <0>         0.1171
     35 H21         3.6763   -5.5610   -0.4147 H         1 <0>         0.4398
     36 H22         4.5640   -4.9355   -1.6539 H         1 <0>         0.4405
     37 H23         4.4804   -4.1368   -0.2151 H         1 <0>         0.4417
@<TRIPOS>BOND
     1    1    2 1
     2    1   17 1
     3    1   18 1
     4    1   19 1
     5    2    3 1
     6    2    9 1
     7    2    4 1
     8    4    5 1
     9    4   20 1
    10    4   21 1
    11    5    6 1
    12    5   22 1
    13    5   23 1
    14    6    7 1
    15    6   11 am
    16    7    8 1
    17    7    9 1
    18    7   10 1
    19    9   24 1
    20    9   25 1
    21   10   26 1
    22   10   27 1
    23   10   28 1
    24   11   12 2
    25   11   13 1
    26   13   14 1
    27   13   15 1
    28   13   16 1
    29   14   29 1
    30   14   30 1
    31   14   31 1
    32   15   32 1
    33   15   33 1
    34   15   34 1
    35   16   35 1
    36   16   36 1
    37   16   37 1
@<TRIPOS>MOLECULE
ZINC62520026
   28    29     0     0     0
SMALL
USER_CHARGES

@<TRIPOS>ATOM
      1 C1         -0.0178    1.4648    0.0101 C.3       1 <0>        -0.0692
      2 N1          0.0021   -0.0041    0.0020 N.4       1 <0>        -0.3057
      3 C2         -1.3651   -0.5112    0.1318 C.3       1 <0>        -0.0137
      4 C3         -2.2097    0.4053    1.0079 C.3       1 <0>        -0.1852
      5 C4         -1.7698    0.4034    2.4580 C.3       1 <0>         0.0492
      6 O1         -0.4386    0.9225    2.5748 O.3       1 <0>        -0.3216
      7 C5          0.5569    0.0237    2.3503 C.ar      1 <0>         0.1830
      8 C6          0.7802   -0.4687    1.0797 C.ar      1 <0>        -0.1520
      9 C7          1.7666   -1.4094    0.8550 C.ar      1 <0>        -0.0238
     10 C8          2.5505   -1.8484    1.9057 C.ar      1 <0>        -0.1873
     11 C9          2.3460   -1.3425    3.1834 C.ar      1 <0>         0.2803
     12 C10         1.3470   -0.4046    3.4075 C.ar      1 <0>        -0.1992
     13 N2          3.1453   -1.7778    4.2428 N.pl3     1 <0>        -0.8481
     14 H1          1.0046    1.8421   -0.0102 H         1 <0>         0.1211
     15 H2         -0.5558    1.8257   -0.8665 H         1 <0>         0.1214
     16 H3         -0.5170    1.8164    0.9130 H         1 <0>         0.1468
     17 H4         -1.8176   -0.5767   -0.8577 H         1 <0>         0.1358
     18 H5         -1.3368   -1.5055    0.5775 H         1 <0>         0.1280
     19 H6         -2.1410    1.4221    0.6213 H         1 <0>         0.1032
     20 H7         -3.2491    0.0814    0.9557 H         1 <0>         0.1257
     21 H8         -2.4509    1.0220    3.0425 H         1 <0>         0.1285
     22 H9         -1.7942   -0.6168    2.8411 H         1 <0>         0.0788
     23 H10         1.9247   -1.8011   -0.1390 H         1 <0>         0.1499
     24 H11         3.3215   -2.5848    1.7334 H         1 <0>         0.1487
     25 H12         1.1859   -0.0101    4.3999 H         1 <0>         0.1520
     26 H13         3.8431   -2.4333    4.0864 H         1 <0>         0.4133
     27 H14         3.0027   -1.4247    5.1349 H         1 <0>         0.4124
     28 H15         0.4006   -0.3302   -0.8657 H         1 <0>         0.4275
@<TRIPOS>BOND
     1    1    2 1
     2    1   14 1
     3    1   15 1
     4    1   16 1
     5    2    8 1
     6    2    3 1
     7    2   28 1
     8    3    4 1
     9    3   17 1
    10    3   18 1
    11    4    5 1
    12    4   19 1
    13    4   20 1
    14    5    6 1
    15    5   21 1
    16    5   22 1
    17    6    7 1
    18    7   12 ar
    19    7    8 ar
    20    8    9 ar
    21    9   10 ar
    22    9   23 1
    23   10   11 ar
    24   10   24 1
    25   11   12 ar
    26   11   13 1
    27   12   25 1
    28   13   26 1
    29   13   27 1
@<TRIPOS>MOLECULE
ZINC19169886
   37    38     0     0     0
SMALL
USER_CHARGES
N-cycloheptylmorpholin-4-amine
@<TRIPOS>ATOM
      1 C1         -3.2556    3.3925   -2.3897 C.3       1 <0>        -0.1248
      2 C2         -3.6815    1.9165   -2.2729 C.3       1 <0>        -0.1311
      3 C3         -2.6081    0.9692   -2.7360 C.3       1 <0>        -0.1084
      4 C4         -1.7807    0.5295   -1.5108 C.3       1 <0>        -0.1557
      5 C5         -0.7955    1.5269   -1.1198 C.3       1 <0>         0.0609
      6 C6         -1.4448    2.8619   -0.7010 C.3       1 <0>        -0.1297
      7 C7         -1.8002    3.6314   -1.9443 C.3       1 <0>        -0.1163
      8 N1         -0.0116    1.0048    0.0076 N.4       1 <0>        -0.4107
      9 N2          1.3386    1.5443   -0.0024 N.3       1 <0>        -0.3466
     10 C8          2.3308    0.4774   -0.1989 C.3       1 <0>        -0.0281
     11 C9          3.7303    1.0949   -0.2627 C.3       1 <0>         0.0658
     12 O1          3.9701    1.8441    0.9317 O.3       1 <0>        -0.3677
     13 C10         3.0227    2.8921    1.1540 C.3       1 <0>         0.0655
     14 C11         1.6160    2.2928    1.2321 C.3       1 <0>        -0.0284
     15 H1         -3.9338    3.9884   -1.7613 H         1 <0>         0.0692
     16 H2         -3.3712    3.6931   -3.4415 H         1 <0>         0.0720
     17 H3         -3.9096    1.6827   -1.2225 H         1 <0>         0.0627
     18 H4         -4.5757    1.7430   -2.8896 H         1 <0>         0.0738
     19 H5         -3.0728    0.0918   -3.2095 H         1 <0>         0.0847
     20 H6         -1.9592    1.4780   -3.4640 H         1 <0>         0.0782
     21 H7         -2.4522    0.3620   -0.6558 H         1 <0>         0.0837
     22 H8         -1.2458   -0.4027   -1.7450 H         1 <0>         0.0822
     23 H9         -0.1486    1.6672   -1.9983 H         1 <0>         0.1378
     24 H10        -2.3520    2.6597   -0.1127 H         1 <0>         0.0907
     25 H11        -0.7342    3.4402   -0.0921 H         1 <0>         0.0829
     26 H12        -1.1152    3.3162   -2.7452 H         1 <0>         0.0704
     27 H13        -1.6517    4.7010   -1.7347 H         1 <0>         0.0792
     28 H14        -0.4971    1.2868    0.9535 H         1 <0>         0.4364
     29 H15         2.2785   -0.2312    0.6409 H         1 <0>         0.0837
     30 H16         2.1184   -0.0522   -1.1393 H         1 <0>         0.1188
     31 H17         4.4801    0.2952   -0.3530 H         1 <0>         0.1278
     32 H18         3.7977    1.7610   -1.1355 H         1 <0>         0.0790
     33 H19         3.2579    3.4048    2.0984 H         1 <0>         0.1277
     34 H20         3.0710    3.6123    0.3239 H         1 <0>         0.0791
     35 H21         0.8773    3.0999    1.3454 H         1 <0>         0.1192
     36 H22         1.5521    1.6136    2.0950 H         1 <0>         0.0838
     37 H23         0.0461   -0.0915   -0.0624 H         1 <0>         0.4322
@<TRIPOS>BOND
     1    1    7 1
     2    1    2 1
     3    1   15 1
     4    1   16 1
     5    2    3 1
     6    2   17 1
     7    2   18 1
     8    3    4 1
     9    3   19 1
    10    3   20 1
    11    4    5 1
    12    4   21 1
    13    4   22 1
    14    5    6 1
    15    5    8 1
    16    5   23 1
    17    6    7 1
    18    6   24 1
    19    6   25 1
    20    7   26 1
    21    7   27 1
    22    8    9 1
    23    8   28 1
    24    8   37 1
    25    9   14 1
    26    9   10 1
    27   10   11 1
    28   10   29 1
    29   10   30 1
    30   11   12 1
    31   11   31 1
    32   11   32 1
    33   12   13 1
    34   13   14 1
    35   13   33 1
    36   13   34 1
    37   14   35 1
    38   14   36 1
@<TRIPOS>MOLECULE
ZINC37117006
   29    30     0     0     0
SMALL
USER_CHARGES

@<TRIPOS>ATOM
      1 C1         -0.0187    1.5258    0.0104 C.3       1 <0>        -0.1806
      2 C2          0.0021   -0.0041    0.0020 C.3       1 <0>        -0.0090
      3 H1         -1.0206   -0.3811    0.0098 H         1 <0>         0.1519
      4 C3          0.7176   -0.4972   -1.2576 C.3       1 <0>         0.0402
      5 O1          2.0786   -0.0553   -1.2356 O.3       1 <0>        -0.3506
      6 C4          2.7994   -0.4932   -0.0816 C.3       1 <0>         0.0782
      7 H2          2.8315   -1.5826   -0.0652 H         1 <0>         0.0861
      8 C5          4.2252    0.0584   -0.1163 C.3       1 <0>        -0.1130
      9 C6          4.9840   -0.4235    1.1225 C.3       1 <0>        -0.1273
     10 C7          4.2732    0.0691    2.3842 C.3       1 <0>        -0.1206
     11 C8          2.8427   -0.4746    2.4140 C.3       1 <0>        -0.1371
     12 C9          2.0902    0.0154    1.1762 C.3       1 <0>        -0.0131
     13 H3          2.0750    1.1053    1.1685 H         1 <0>         0.1497
     14 N1          0.7124   -0.4907    1.1935 N.4       1 <0>        -0.5036
     15 H4          1.0039    1.9031    0.0027 H         1 <0>         0.0857
     16 H5         -0.5459    1.8868   -0.8726 H         1 <0>         0.1088
     17 H6         -0.5289    1.8773    0.9072 H         1 <0>         0.0825
     18 H7          0.6896   -1.5864   -1.2887 H         1 <0>         0.0815
     19 H8          0.2192   -0.0953   -2.1397 H         1 <0>         0.1421
     20 H9          4.7311   -0.2970   -1.0140 H         1 <0>         0.0950
     21 H10         4.1938    1.1479   -0.1228 H         1 <0>         0.0839
     22 H11         5.0173   -1.5130    1.1267 H         1 <0>         0.0738
     23 H12         6.0002   -0.0300    1.1015 H         1 <0>         0.0892
     24 H13         4.8126   -0.2804    3.2645 H         1 <0>         0.0901
     25 H14         4.2472    1.1588    2.3841 H         1 <0>         0.0775
     26 H15         2.8676   -1.5643    2.4170 H         1 <0>         0.0890
     27 H16         2.3369   -0.1192    3.3117 H         1 <0>         0.0927
     28 H17         0.2431   -0.1610    2.0237 H         1 <0>         0.4308
     29 H18         0.7238   -1.4996    1.1903 H         1 <0>         0.4262
@<TRIPOS>BOND
     1    1    2 1
     2    1   15 1
     3    1   16 1
     4    1   17 1
     5    2    3 1
     6    2   14 1
     7    2    4 1
     8    4    5 1
     9    4   18 1
    10    4   19 1
    11    5    6 1
    12    6    7 1
    13    6   12 1
    14    6    8 1
    15    8    9 1
    16    8   20 1
    17    8   21 1
    18    9   10 1
    19    9   22 1
    20    9   23 1
    21   10   11 1
    22   10   24 1
    23   10   25 1
    24   11   12 1
    25   11   26 1
    26   11   27 1
    27   12   13 1
    28   12   14 1
    29   14   28 1
    30   14   29 1
@<TRIPOS>MOLECULE
ZINC51953819
   29    30     0     0     0
SMALL
USER_CHARGES

@<TRIPOS>ATOM
      1 C1          0.0363    1.5946   -0.0753 C.3       1 <0>        -0.1790
      2 C2          0.0041    0.0657   -0.0272 C.3       1 <0>         0.0299
      3 H1         -1.0208   -0.2889    0.0821 H         1 <0>         0.1436
      4 C3          0.6459   -0.5266   -1.3002 C.3       1 <0>        -0.0969
      5 H2          1.3361    0.1902   -1.7449 H         1 <0>         0.1127
      6 C4          1.4093   -1.7778   -0.8192 C.3       1 <0>        -0.1542
      7 C5          1.1646   -1.8362    0.7040 C.3       1 <0>        -0.0021
      8 N1          0.8475   -0.4355    1.0884 N.4       1 <0>        -0.5189
      9 C6         -0.4364   -0.9169   -2.3087 C.3       1 <0>        -0.1192
     10 H3         -1.0318   -0.0463   -2.5840 H         1 <0>         0.1001
     11 C7         -1.3415   -2.0308   -1.7284 C.3       1 <0>        -0.1632
     12 C8         -1.5523   -2.9511   -2.9575 C.3       1 <0>         0.0435
     13 O1         -0.2748   -2.9139   -3.6293 O.3       1 <0>        -0.3714
     14 C9          0.1972   -1.5547   -3.5603 C.3       1 <0>         0.0477
     15 H4          1.0703    1.9345   -0.1351 H         1 <0>         0.0826
     16 H5         -0.5117    1.9422   -0.9510 H         1 <0>         0.1064
     17 H6         -0.4266    1.9963    0.8261 H         1 <0>         0.0843
     18 H7          1.0128   -2.6717   -1.3008 H         1 <0>         0.1215
     19 H8          2.4742   -1.6751   -1.0278 H         1 <0>         0.1029
     20 H9          0.3220   -2.4901    0.9288 H         1 <0>         0.1331
     21 H10         2.0612   -2.1790    1.2202 H         1 <0>         0.1386
     22 H11         1.6937    0.1091    1.1633 H         1 <0>         0.4304
     23 H12        -0.8343   -2.5649   -0.9249 H         1 <0>         0.0788
     24 H13        -2.2902   -1.6203   -1.3825 H         1 <0>         0.0874
     25 H14        -1.7898   -3.9666   -2.6405 H         1 <0>         0.1002
     26 H15        -2.3370   -2.5561   -3.6028 H         1 <0>         0.0691
     27 H16        -0.1107   -1.0076   -4.4513 H         1 <0>         0.0704
     28 H17         1.2837   -1.5427   -3.4726 H         1 <0>         0.0889
     29 H18         0.3339   -0.4135    1.9566 H         1 <0>         0.4329
@<TRIPOS>BOND
     1    1    2 1
     2    1   15 1
     3    1   16 1
     4    1   17 1
     5    2    3 1
     6    2    8 1
     7    2    4 1
     8    4    5 1
     9    4    6 1
    10    4    9 1
    11    6    7 1
    12    6   18 1
    13    6   19 1
    14    7    8 1
    15    7   20 1
    16    7   21 1
    17    8   22 1
    18    8   29 1
    19    9   10 1
    20    9   14 1
    21    9   11 1
    22   11   12 1
    23   11   23 1
    24   11   24 1
    25   12   13 1
    26   12   25 1
    27   12   26 1
    28   13   14 1
    29   14   27 1
    30   14   28 1
@<TRIPOS>MOLECULE
ZINC13467880
   32    33     0     0     0
SMALL
USER_CHARGES

@<TRIPOS>ATOM
      1 C1         -0.0187    1.5258    0.0104 C.3       1 <0>        -0.1650
      2 C2          0.0021   -0.0041    0.0020 C.3       1 <0>        -0.1124
      3 H1         -1.0241   -0.3714    0.0098 H         1 <0>         0.1185
      4 C3          0.6886   -0.4822   -1.2715 C.3       1 <0>        -0.1284
      5 C4          1.7014   -1.5746   -0.9916 C.3       1 <0>        -0.0940
      6 H2          2.2514   -1.7719   -1.9117 H         1 <0>         0.1232
      7 C5          1.0186   -2.8752   -0.5566 C.3       1 <0>        -0.0674
      8 C6          1.1453   -2.9178    0.9698 C.2       1 <0>         0.1055
      9 N1          1.8718   -3.7786    1.5769 N.2       1 <0>        -0.3055
     10 O1          1.9494   -3.7683    2.9908 O.3       1 <0>        -0.4087
     11 C7          0.3519   -1.8730    1.6982 C.3       1 <0>        -0.1383
     12 C8          0.6996   -0.4867    1.2338 C.3       1 <0>         0.0530
     13 H3          0.3992    0.1869    2.0364 H         1 <0>         0.1287
     14 N2          2.1479   -0.3028    1.0967 N.4       1 <0>        -0.3710
     15 C9          2.7025   -1.1693    0.0807 C.3       1 <0>        -0.0227
     16 C10         2.7921   -0.6112    2.3804 C.3       1 <0>        -0.0609
     17 H4          1.0039    1.9031    0.0027 H         1 <0>         0.0544
     18 H5         -0.5459    1.8868   -0.8726 H         1 <0>         0.0855
     19 H6         -0.5289    1.8773    0.9072 H         1 <0>         0.0733
     20 H7         -0.0657   -0.8653   -1.9588 H         1 <0>         0.1014
     21 H8          1.1966    0.3614   -1.7388 H         1 <0>         0.0877
     22 H9         -0.0320   -2.8643   -0.8470 H         1 <0>         0.1129
     23 H10         1.5243   -3.7327   -1.0004 H         1 <0>         0.1049
     24 H11         2.5222   -4.4554    3.3582 H         1 <0>         0.4206
     25 H12        -0.7100   -2.0500    1.5272 H         1 <0>         0.1305
     26 H13         0.5563   -1.9519    2.7659 H         1 <0>         0.1086
     27 H14         3.0975   -2.0707    0.5493 H         1 <0>         0.1320
     28 H15         3.5256   -0.6345   -0.3931 H         1 <0>         0.1291
     29 H16         2.5768   -1.6435    2.6562 H         1 <0>         0.1258
     30 H17         3.8698   -0.4771    2.2876 H         1 <0>         0.1263
     31 H18         2.4075    0.0582    3.1499 H         1 <0>         0.1264
     32 H19         2.3354    0.6600    0.8602 H         1 <0>         0.4261
@<TRIPOS>BOND
     1    1    2 1
     2    1   17 1
     3    1   18 1
     4    1   19 1
     5    2    3 1
     6    2   12 1
     7    2    4 1
     8    4    5 1
     9    4   20 1
    10    4   21 1
    11    5    6 1
    12    5   15 1
    13    5    7 1
    14    7    8 1
    15    7   22 1
    16    7   23 1
    17    8    9 2
    18    8   11 1
    19    9   10 1
    20   10   24 1
    21   11   12 1
    22   11   25 1
    23   11   26 1
    24   12   13 1
    25   12   14 1
    26   14   15 1
    27   14   16 1
    28   14   32 1
    29   15   27 1
    30   15   28 1
    31   16   29 1
    32   16   30 1
    33   16   31 1
@<TRIPOS>MOLECULE
ZINC62990519
   32    33     0     0     0
SMALL
USER_CHARGES

@<TRIPOS>ATOM
      1 C1         -0.2647    1.4702    0.0237 C.3       1 <0>        -0.1519
      2 C2         -0.1089   -0.0516   -0.0039 C.3       1 <0>         0.0726
      3 H1         -1.0928   -0.5191    0.0342 H         1 <0>         0.0641
      4 C3          0.6071   -0.4698   -1.2932 C.3       1 <0>         0.1019
      5 N1          0.9110   -1.9072   -1.2101 N.pl3     1 <0>        -0.7050
      6 C4          1.5886   -2.4020   -0.0012 C.3       1 <0>         0.1292
      7 H2          2.6133   -2.0311    0.0232 H         1 <0>         0.1074
      8 C5          0.8248   -1.8897    1.2252 C.3       1 <0>         0.0486
      9 O1          0.6638   -0.4729    1.1227 O.3       1 <0>        -0.3619
     10 C6          1.5944   -3.9320   -0.0035 C.3       1 <0>        -0.1832
     11 C7          0.5735   -2.7594   -2.2282 C.cat     1 <0>         0.6591
     12 N2         -0.5839   -3.3366   -2.2315 N.pl3     1 <0>        -0.6807
     13 C8          1.5508   -3.0243   -3.3443 C.3       1 <0>        -0.2083
     14 C9          0.9939   -3.1026   -4.7673 C.3       1 <0>        -0.1328
     15 C10         1.4600   -4.3751   -4.0571 C.3       1 <0>        -0.1423
     16 H3          0.7196    1.9370   -0.0144 H         1 <0>         0.0741
     17 H4         -0.8524    1.7909   -0.8365 H         1 <0>         0.0787
     18 H5         -0.7722    1.7669    0.9415 H         1 <0>         0.0785
     19 H6         -0.0393   -0.2802   -2.1501 H         1 <0>         0.0933
     20 H7          1.5329    0.0957   -1.3989 H         1 <0>         0.0991
     21 H8         -0.1554   -2.3646    1.2682 H         1 <0>         0.0584
     22 H9          1.3855   -2.1280    2.1290 H         1 <0>         0.1217
     23 H10         2.1698   -4.2919   -0.8565 H         1 <0>         0.0746
     24 H11         2.0470   -4.2950    0.9192 H         1 <0>         0.1027
     25 H12         0.5706   -4.2991   -0.0750 H         1 <0>         0.0586
     26 H13        -0.7953   -3.9955   -2.9113 H         1 <0>         0.4417
     27 H14         2.5418   -2.5894   -3.2146 H         1 <0>         0.1678
     28 H15        -0.0794   -2.9624   -4.8961 H         1 <0>         0.1121
     29 H16         1.6185   -2.7189   -5.5740 H         1 <0>         0.1370
     30 H17         2.3912   -4.8287   -4.3966 H         1 <0>         0.1374
     31 H18         0.6933   -5.0722   -3.7187 H         1 <0>         0.1099
     32 H19        -1.2405   -3.1106   -1.5543 H         1 <0>         0.4376
@<TRIPOS>BOND
     1    1    2 1
     2    1   16 1
     3    1   17 1
     4    1   18 1
     5    2    3 1
     6    2    9 1
     7    2    4 1
     8    4    5 1
     9    4   19 1
    10    4   20 1
    11    5    6 1
    12    5   11 1
    13    6    7 1
    14    6    8 1
    15    6   10 1
    16    8    9 1
    17    8   21 1
    18    8   22 1
    19   10   23 1
    20   10   24 1
    21   10   25 1
    22   11   12 2
    23   11   13 1
    24   12   26 1
    25   12   32 1
    26   13   15 1
    27   13   14 1
    28   13   27 1
    29   14   15 1
    30   14   28 1
    31   14   29 1
    32   15   30 1
    33   15   31 1
@<TRIPOS>MOLECULE
ZINC01423257
   28    29     0     0     0
SMALL
USER_CHARGES
2-(4-fluorophenyl)sulfonyl-4-nitro-benzonitrile
@<TRIPOS>ATOM
      1 C1         -7.5260    2.6424    2.8669 C.ar      1 <0>        -0.1686
      2 C2         -6.8933    2.3808    1.6664 C.ar      1 <0>        -0.0012
      3 C3         -6.0161    1.3173    1.5640 C.ar      1 <0>        -0.6826
      4 C4         -5.7746    0.5111    2.6608 C.ar      1 <0>         0.0151
      5 C5         -6.4020    0.7738    3.8637 C.ar      1 <0>        -0.1711
      6 C6         -7.2809    1.8387    3.9674 C.ar      1 <0>         0.1673
      7 F1         -7.8984    2.0937    5.1417 F         1 <0>        -0.1230
      8 S1         -5.2107    0.9847    0.0326 S.o2      1 <0>         2.5778
      9 O1         -6.0253    1.5493   -0.9857 O.2       1 <0>        -0.9092
     10 O2         -4.8573   -0.3915    0.0500 O.2       1 <0>        -0.9095
     11 C7         -3.7004    1.8924    0.0303 C.ar      1 <0>        -0.6289
     12 C8         -2.4928    1.2253    0.0205 C.ar      1 <0>         0.0444
     13 C9         -1.3061    1.9363    0.0188 C.ar      1 <0>        -0.0390
     14 C10        -1.3212    3.3200    0.0321 C.ar      1 <0>         0.0018
     15 C11        -2.5213    3.9998    0.0357 C.ar      1 <0>        -0.0831
     16 C12        -3.7230    3.2883    0.0380 C.ar      1 <0>         0.1281
     17 C13        -4.9727    3.9874    0.0478 C.1       1 <0>         0.2043
     18 N1         -5.9641    4.5419    0.0555 N.1       1 <0>        -0.3235
     19 N2         -0.0144    1.2138    0.0087 N.pl3     1 <0>         0.0202
     20 O3          0.0021   -0.0041    0.0020 O.2       1 <0>        -0.1361
     21 O4          1.0320    1.8371    0.0021 O.3       1 <0>        -0.1392
     22 H1         -8.2110    3.4735    2.9467 H         1 <0>         0.1514
     23 H2         -7.0841    3.0078    0.8079 H         1 <0>         0.1535
     24 H3         -5.0922   -0.3220    2.5785 H         1 <0>         0.1589
     25 H4         -6.2101    0.1463    4.7215 H         1 <0>         0.1538
     26 H5         -2.4738    0.1454    0.0146 H         1 <0>         0.1878
     27 H6         -0.3911    3.8689    0.0354 H         1 <0>         0.1781
     28 H7         -2.5317    5.0797    0.0420 H         1 <0>         0.1729
@<TRIPOS>BOND
     1    1    6 ar
     2    1    2 ar
     3    1   22 1
     4    2    3 ar
     5    2   23 1
     6    3    4 ar
     7    3    8 1
     8    4    5 ar
     9    4   24 1
    10    5    6 ar
    11    5   25 1
    12    6    7 1
    13    8    9 2
    14    8   10 2
    15    8   11 1
    16   11   16 ar
    17   11   12 ar
    18   12   13 ar
    19   12   26 1
    20   13   14 ar
    21   13   19 1
    22   14   15 ar
    23   14   27 1
    24   15   16 ar
    25   15   28 1
    26   16   17 1
    27   17   18 3
    28   19   20 2
    29   19   21 1
@<TRIPOS>MOLECULE
ZINC07450182
   52    55     0     0     0
SMALL
USER_CHARGES
6-[(3R,5S)-3,5-dimethyl-1-piperidyl]-1-methyl-4-(1-piperidyl)pyrazolo[5,4-d]pyrimidine
@<TRIPOS>ATOM
      1 C1         -1.8296    5.8695   -0.0746 C.3       1 <0>        -0.1463
      2 C2         -0.3785    5.3857   -0.1122 C.3       1 <0>        -0.0938
      3 H1          0.0785    5.6796   -1.0687 H         1 <0>         0.0810
      4 C3          0.4014    6.0160    1.0450 C.3       1 <0>        -0.1152
      5 C4          1.8359    5.4804    1.0349 C.3       1 <0>        -0.0902
      6 H2          2.3342    5.7755    0.0997 H         1 <0>         0.0844
      7 C5          1.8060    3.9539    1.1399 C.3       1 <0>         0.0730
      8 N1          1.0493    3.3990    0.0103 N.pl3     1 <0>        -0.4536
      9 C6         -0.3442    3.8620    0.0261 C.3       1 <0>         0.0752
     10 C7          1.1125    2.0167    0.0023 C.ar      1 <0>         0.5662
     11 N2         -0.0160    1.3277    0.0093 N.ar      1 <0>        -0.5901
     12 C8          0.0021   -0.0041    0.0020 C.ar      1 <0>         0.3811
     13 C9          1.2440   -0.6682   -0.0134 C.ar      1 <0>        -0.3192
     14 C10         0.9718   -2.0535   -0.0187 C.2       1 <0>         0.1117
     15 N3         -0.3199   -2.2204   -0.0075 N.2       1 <0>        -0.2525
     16 N4         -0.9568   -0.9731    0.0055 N.pl3     1 <0>        -0.3826
     17 C11        -2.4044   -0.7484    0.0204 C.3       1 <0>         0.1084
     18 C12         2.4193    0.1088   -0.0200 C.ar      1 <0>         0.4666
     19 N5          2.3043    1.4313   -0.0115 N.ar      1 <0>        -0.5890
     20 N6          3.6627   -0.4917   -0.0356 N.pl3     1 <0>        -0.4649
     21 C13         3.8122   -1.4214    1.0913 C.3       1 <0>         0.0557
     22 C14         5.1385   -2.1737    0.9611 C.3       1 <0>        -0.1203
     23 C15         6.2919   -1.1667    0.9496 C.3       1 <0>        -0.1264
     24 C16         6.0866   -0.1806   -0.2037 C.3       1 <0>        -0.1229
     25 C17         4.7328    0.5139   -0.0398 C.3       1 <0>         0.0633
     26 C18         2.6059    6.0600    2.2231 C.3       1 <0>        -0.1476
     27 H3         -1.8536    6.9647   -0.1740 H         1 <0>         0.0605
     28 H4         -2.2886    5.5780    0.8816 H         1 <0>         0.0553
     29 H5         -2.3897    5.4136   -0.9043 H         1 <0>         0.0580
     30 H6          0.4144    7.1094    0.9258 H         1 <0>         0.0701
     31 H7         -0.0831    5.7568    1.9979 H         1 <0>         0.0625
     32 H8          2.8346    3.5647    1.1181 H         1 <0>         0.0955
     33 H9          1.3229    3.6607    2.0836 H         1 <0>         0.0438
     34 H10        -0.8166    3.5693    0.9754 H         1 <0>         0.0530
     35 H11        -0.8913    3.4053   -0.8118 H         1 <0>         0.0892
     36 H12         1.7100   -2.8418   -0.0301 H         1 <0>         0.1980
     37 H13        -2.9258   -1.7170    0.0198 H         1 <0>         0.0982
     38 H14        -2.6956   -0.1746   -0.8718 H         1 <0>         0.0802
     39 H15        -2.6787   -0.1849    0.9244 H         1 <0>         0.0792
     40 H16         3.8022   -0.8575    2.0357 H         1 <0>         0.0523
     41 H17         2.9806   -2.1414    1.0854 H         1 <0>         0.0901
     42 H18         5.2564   -2.8592    1.8133 H         1 <0>         0.0782
     43 H19         5.1429   -2.7496    0.0239 H         1 <0>         0.0780
     44 H20         6.3110   -0.6202    1.9040 H         1 <0>         0.0624
     45 H21         7.2438   -1.7010    0.8139 H         1 <0>         0.0704
     46 H22         6.8900    0.5707   -0.1911 H         1 <0>         0.0758
     47 H23         6.1083   -0.7246   -1.1595 H         1 <0>         0.0737
     48 H24         4.5761    1.2125   -0.8749 H         1 <0>         0.0928
     49 H25         4.7184    1.0687    0.9100 H         1 <0>         0.0551
     50 H26         3.6363    5.6749    2.2153 H         1 <0>         0.0588
     51 H27         2.1111    5.7645    3.1600 H         1 <0>         0.0545
     52 H28         2.6240    7.1573    2.1482 H         1 <0>         0.0622
@<TRIPOS>BOND
     1    1    2 1
     2    1   27 1
     3    1   28 1
     4    1   29 1
     5    2    3 1
     6    2    9 1
     7    2    4 1
     8    4    5 1
     9    4   30 1
    10    4   31 1
    11    5    6 1
    12    5    7 1
    13    5   26 1
    14    7    8 1
    15    7   32 1
    16    7   33 1
    17    8    9 1
    18    8   10 1
    19    9   34 1
    20    9   35 1
    21   10   19 ar
    22   10   11 ar
    23   11   12 ar
    24   12   16 1
    25   12   13 ar
    26   13   14 1
    27   13   18 ar
    28   14   15 2
    29   14   36 1
    30   15   16 1
    31   16   17 1
    32   17   37 1
    33   17   38 1
    34   17   39 1
    35   18   19 ar
    36   18   20 1
    37   20   25 1
    38   20   21 1
    39   21   22 1
    40   21   40 1
    41   21   41 1
    42   22   23 1
    43   22   42 1
    44   22   43 1
    45   23   24 1
    46   23   44 1
    47   23   45 1
    48   24   25 1
    49   24   46 1
    50   24   47 1
    51   25   48 1
    52   25   49 1
    53   26   50 1
    54   26   51 1
    55   26   52 1
@<TRIPOS>MOLECULE
ZINC39320742
   49    51     0     0     0
SMALL
USER_CHARGES

@<TRIPOS>ATOM
      1 C1         -0.1645   -2.1153    3.7733 C.3       1 <0>        -0.1445
      2 C2         -1.0563   -1.7208    2.5944 C.3       1 <0>         0.0667
      3 H1         -2.0974   -1.9317    2.8389 H         1 <0>         0.0715
      4 C3         -0.6491   -2.5232    1.3533 C.3       1 <0>         0.0518
      5 N1         -1.3891   -1.9954    0.1960 N.pl3     1 <0>        -0.4949
      6 C4         -1.3641   -0.5426   -0.0368 C.3       1 <0>         0.0491
      7 C5         -1.7365    0.1633    1.2720 C.3       1 <0>         0.0745
      8 H2         -1.5904    1.2377    1.1605 H         1 <0>         0.1299
      9 O1         -0.9023   -0.3252    2.3252 O.3       1 <0>        -0.3632
     10 C6         -3.2020   -0.1212    1.6070 C.3       1 <0>        -0.1910
     11 C7         -2.0605   -2.8077   -0.6160 C.2       1 <0>         0.3615
     12 C8         -2.9315   -2.3107   -1.6326 C.2       1 <0>        -0.3203
     13 C9         -3.4638   -3.1449   -2.5612 C.2       1 <0>         0.1331
     14 C10        -3.1042   -4.5576   -2.6728 C.2       1 <0>        -0.1510
     15 C11        -2.2707   -5.1294   -1.7441 C.2       1 <0>         0.0069
     16 C12        -1.5471   -6.2864   -1.5178 C.2       1 <0>        -0.2140
     17 C13        -0.5259   -5.9852   -0.5089 C.2       1 <0>         0.2243
     18 N2         -0.7162   -4.8092    0.0225 N.2       1 <0>        -0.5212
     19 C14        -1.9434   -4.2908   -0.5231 C.3       1 <0>         0.0463
     20 H3         -2.6885   -4.5855    0.2160 H         1 <0>         0.1462
     21 C15         0.5992   -6.9153   -0.1343 C.3       1 <0>        -0.0131
     22 C16         1.4606   -6.2633    0.9491 C.3       1 <0>        -0.1326
     23 C17         0.0201   -8.2284    0.3961 C.3       1 <0>        -0.1408
     24 C18         1.4590   -7.1985   -1.3678 C.3       1 <0>        -0.1401
     25 N3         -3.6397   -5.3721   -3.7880 N.pl3     1 <0>         0.0357
     26 O2         -4.4398   -4.8238   -4.6789 O.2       1 <0>        -0.2661
     27 O3         -3.3159   -6.6447   -3.8886 O.3       1 <0>        -0.2438
     28 H4         -0.4534   -1.5431    4.6549 H         1 <0>         0.0745
     29 H5         -0.2810   -3.1798    3.9768 H         1 <0>         0.0793
     30 H6          0.8764   -1.9041    3.5281 H         1 <0>         0.0708
     31 H7          0.4223   -2.4176    1.1831 H         1 <0>         0.1031
     32 H8         -0.8964   -3.5748    1.4986 H         1 <0>         0.1415
     33 H9         -0.3646   -0.2377   -0.3469 H         1 <0>         0.1090
     34 H10        -2.0849   -0.2826   -0.8121 H         1 <0>         0.1172
     35 H11        -3.3469   -1.1955    1.7201 H         1 <0>         0.0576
     36 H12        -3.4660    0.3811    2.5377 H         1 <0>         0.0771
     37 H13        -3.8371    0.2484    0.8019 H         1 <0>         0.0766
     38 H14        -3.1699   -1.2578   -1.6625 H         1 <0>         0.1535
     39 H15        -4.1904   -2.7449   -3.2529 H         1 <0>         0.1553
     40 H16        -1.7058   -7.2407   -1.9978 H         1 <0>         0.1610
     41 H17         0.8480   -6.0616    1.8279 H         1 <0>         0.0588
     42 H18         2.2743   -6.9360    1.2201 H         1 <0>         0.0610
     43 H19         1.8731   -5.3278    0.5713 H         1 <0>         0.0585
     44 H20        -0.5935   -8.6929   -0.3757 H         1 <0>         0.0657
     45 H21         0.8339   -8.9011    0.6671 H         1 <0>         0.0693
     46 H22        -0.5924   -8.0267    1.2749 H         1 <0>         0.0575
     47 H23         1.8715   -6.2630   -1.7456 H         1 <0>         0.0569
     48 H24         2.2727   -7.8712   -1.0968 H         1 <0>         0.0687
     49 H25         0.8453   -7.6629   -2.1396 H         1 <0>         0.0664
@<TRIPOS>BOND
     1    1    2 1
     2    1   28 1
     3    1   29 1
     4    1   30 1
     5    2    3 1
     6    2    9 1
     7    2    4 1
     8    4    5 1
     9    4   31 1
    10    4   32 1
    11    5    6 1
    12    5   11 1
    13    6    7 1
    14    6   33 1
    15    6   34 1
    16    7    8 1
    17    7    9 1
    18    7   10 1
    19   10   35 1
    20   10   36 1
    21   10   37 1
    22   11   19 1
    23   11   12 2
    24   12   13 1
    25   12   38 1
    26   13   14 2
    27   13   39 1
    28   14   15 1
    29   14   25 1
    30   15   19 1
    31   15   16 2
    32   16   17 1
    33   16   40 1
    34   17   18 2
    35   17   21 1
    36   18   19 1
    37   19   20 1
    38   21   22 1
    39   21   23 1
    40   21   24 1
    41   22   41 1
    42   22   42 1
    43   22   43 1
    44   23   44 1
    45   23   45 1
    46   23   46 1
    47   24   47 1
    48   24   48 1
    49   24   49 1
    50   25   26 2
    51   25   27 1
@<TRIPOS>MOLECULE
ZINC61514995
   35    36     0     0     0
SMALL
USER_CHARGES

@<TRIPOS>ATOM
      1 C1         -1.4989   -0.2855   -0.1315 C.3       1 <0>        -0.1592
      2 C2         -0.0042    0.0212   -0.0183 C.3       1 <0>        -0.1117
      3 C3          0.7343   -0.5942   -1.2085 C.3       1 <0>         0.1198
      4 H1          0.3517   -0.1703   -2.1369 H         1 <0>         0.0890
      5 C4          0.5313   -2.1136   -1.2125 C.3       1 <0>         0.0514
      6 O1          1.3708   -2.6980   -2.2113 O.3       1 <0>        -0.3744
      7 C5          2.7695   -2.5077   -1.9847 C.3       1 <0>         0.0734
      8 H2          3.0390   -2.9139   -1.0098 H         1 <0>         0.0641
      9 C6          3.0871   -1.0084   -2.0203 C.3       1 <0>         0.0922
     10 N1          2.1751   -0.3180   -1.0943 N.pl3     1 <0>        -0.5629
     11 C7          2.6569    0.5616   -0.1465 C.ar      1 <0>         0.6422
     12 N2          3.9450    0.8897   -0.1367 N.ar      1 <0>        -0.6064
     13 C8          4.4046    1.7356    0.7760 C.ar      1 <0>         0.5922
     14 N3          3.5771    2.2530    1.6782 N.ar      1 <0>        -0.6307
     15 C9          2.2950    1.9256    1.6673 C.ar      1 <0>         0.4654
     16 N4          1.8318    1.0867    0.7554 N.ar      1 <0>        -0.5922
     17 Cl1         1.2177    2.6038    2.8476 Cl        1 <0>         0.0474
     18 O2          5.7154    2.0711    0.7888 O.3       1 <0>        -0.2776
     19 C10         6.1407    2.9872    1.7997 C.3       1 <0>         0.0402
     20 C11         3.5662   -3.2260   -3.0757 C.3       1 <0>        -0.1443
     21 H3         -1.9058    0.2105   -1.0128 H         1 <0>         0.0545
     22 H4         -1.6431   -1.3621   -0.2215 H         1 <0>         0.0531
     23 H5         -2.0126    0.0768    0.7590 H         1 <0>         0.0622
     24 H6          0.1460    1.1008   -0.0162 H         1 <0>         0.1011
     25 H7          0.3842   -0.4014    0.9083 H         1 <0>         0.0773
     26 H8          0.7927   -2.5184   -0.2348 H         1 <0>         0.0581
     27 H9         -0.5113   -2.3411   -1.4346 H         1 <0>         0.1143
     28 H10         4.1190   -0.8443   -1.7099 H         1 <0>         0.1115
     29 H11         2.9420   -0.6263   -3.0307 H         1 <0>         0.0840
     30 H12         5.5990    3.9266    1.6899 H         1 <0>         0.0693
     31 H13         5.9373    2.5632    2.7831 H         1 <0>         0.0693
     32 H14         7.2103    3.1704    1.6972 H         1 <0>         0.1111
     33 H15         3.2975   -2.8180   -4.0501 H         1 <0>         0.0686
     34 H16         4.6325   -3.0804   -2.9023 H         1 <0>         0.0769
     35 H17         3.3363   -4.2912   -3.0518 H         1 <0>         0.0710
@<TRIPOS>BOND
     1    1    2 1
     2    1   21 1
     3    1   22 1
     4    1   23 1
     5    2    3 1
     6    2   24 1
     7    2   25 1
     8    3    4 1
     9    3   10 1
    10    3    5 1
    11    5    6 1
    12    5   26 1
    13    5   27 1
    14    6    7 1
    15    7    8 1
    16    7    9 1
    17    7   20 1
    18    9   10 1
    19    9   28 1
    20    9   29 1
    21   10   11 1
    22   11   16 ar
    23   11   12 ar
    24   12   13 ar
    25   13   14 ar
    26   13   18 1
    27   14   15 ar
    28   15   16 ar
    29   15   17 1
    30   18   19 1
    31   19   30 1
    32   19   31 1
    33   19   32 1
    34   20   33 1
    35   20   34 1
    36   20   35 1
@<TRIPOS>MOLECULE
ZINC02944645
   34    36     0     0     0
SMALL
USER_CHARGES

@<TRIPOS>ATOM
      1 C1         -0.0167    1.3782    0.0096 C.ar      1 <0>        -0.0101
      2 C2          1.1696    2.0890    0.0021 C.ar      1 <0>        -0.1419
      3 C3          2.3786    1.4179   -0.0135 C.ar      1 <0>         0.1727
      4 C4          2.3995    0.0276   -0.0211 C.ar      1 <0>         0.0776
      5 C5          1.2067   -0.6809   -0.0130 C.ar      1 <0>        -0.0093
      6 C6          0.0021   -0.0041    0.0020 C.ar      1 <0>        -0.0533
      7 N1         -1.2703   -0.7603    0.0101 N.pl3     1 <0>         0.0339
      8 O1         -2.3248   -0.1691    0.0233 O.2       1 <0>        -0.1417
      9 O2         -1.2551   -1.9692    0.0034 O.3       1 <0>        -0.1490
     10 N2          3.6238   -0.6571   -0.0373 N.am      1 <0>        -0.5547
     11 C7          4.2843   -1.0327    1.0913 C.2       1 <0>         0.5449
     12 O3          4.0568   -0.6689    2.2252 O.2       1 <0>        -0.4489
     13 C8          5.3478   -1.9860    0.6481 C.3       1 <0>        -0.1270
     14 H1          4.9338   -2.9911    0.5681 H         1 <0>         0.1303
     15 C9          6.6662   -2.0318    1.3835 C.3       1 <0>        -0.0981
     16 C10         7.5463   -3.0615    0.6509 C.3       1 <0>        -0.1215
     17 C11         7.7125   -2.7262   -0.8272 C.3       1 <0>        -0.1213
     18 C12         6.3536   -2.5219   -1.5264 C.3       1 <0>        -0.0990
     19 C13         5.6452   -1.4212   -0.7729 C.3       1 <0>        -0.1266
     20 H2          6.2977   -0.5512   -0.6994 H         1 <0>         0.1309
     21 C14         4.2637   -1.0155   -1.1832 C.2       1 <0>         0.5456
     22 O4          3.8083   -1.0059   -2.3067 O.2       1 <0>        -0.4486
     23 F1          3.5377    2.1120   -0.0217 F         1 <0>        -0.1089
     24 H3         -0.9598    1.9041    0.0260 H         1 <0>         0.1740
     25 H4          1.1517    3.1688    0.0080 H         1 <0>         0.1730
     26 H5          1.2197   -1.7608   -0.0193 H         1 <0>         0.1675
     27 H6          7.1411   -1.0510    1.3590 H         1 <0>         0.0768
     28 H7          6.5069   -2.3445    2.4154 H         1 <0>         0.0846
     29 H8          8.5293   -3.0854    1.1213 H         1 <0>         0.0752
     30 H9          7.0884   -4.0465    0.7412 H         1 <0>         0.0679
     31 H10         8.3003   -1.8130   -0.9200 H         1 <0>         0.0676
     32 H11         8.2453   -3.5407   -1.3180 H         1 <0>         0.0755
     33 H12         6.5070   -2.2266   -2.5644 H         1 <0>         0.0846
     34 H13         5.7664   -3.4390   -1.4794 H         1 <0>         0.0772
@<TRIPOS>BOND
     1    1    6 ar
     2    1    2 ar
     3    1   24 1
     4    2    3 ar
     5    2   25 1
     6    3    4 ar
     7    3   23 1
     8    4    5 ar
     9    4   10 1
    10    5    6 ar
    11    5   26 1
    12    6    7 1
    13    7    8 2
    14    7    9 1
    15   10   21 am
    16   10   11 am
    17   11   12 2
    18   11   13 1
    19   13   14 1
    20   13   19 1
    21   13   15 1
    22   15   16 1
    23   15   27 1
    24   15   28 1
    25   16   17 1
    26   16   29 1
    27   16   30 1
    28   17   18 1
    29   17   31 1
    30   17   32 1
    31   18   19 1
    32   18   33 1
    33   18   34 1
    34   19   20 1
    35   19   21 1
    36   21   22 2
@<TRIPOS>MOLECULE
ZINC02510903
   15    15     0     0     0
SMALL
USER_CHARGES
3,3-difluoropyrrolidine
@<TRIPOS>ATOM
      1 C1          0.0021   -0.0041    0.0020 C.3       1 <0>        -0.1916
      2 C2         -0.0188    1.5357    0.0105 C.3       1 <0>        -0.0051
      3 C3          2.1759    0.8800    0.5975 C.3       1 <0>        -0.0434
      4 C4          1.4996   -0.3877    0.0176 C.3       1 <0>         0.2774
      5 F1          1.7195   -1.4907    0.8495 F         1 <0>        -0.1561
      6 F2          1.9574   -0.6484   -1.2785 F         1 <0>        -0.1697
      7 H1         -0.4976   -0.3941    0.8888 H         1 <0>         0.1385
      8 H2         -0.4780   -0.3840   -0.8998 H         1 <0>         0.1340
      9 H3         -0.5346    1.9049   -0.8759 H         1 <0>         0.1503
     10 H4         -0.5176    1.8954    0.9105 H         1 <0>         0.1474
     11 H5          2.0971    0.8949    1.6845 H         1 <0>         0.1686
     12 H6          3.2196    0.9349    0.2879 H         1 <0>         0.1669
     13 N1          1.3802    1.9666    0.0082 N.4       1 <0>        -0.5115
     14 H7          1.4851    2.8214    0.5672 H         1 <0>         0.4502
     15 H8          1.6904    2.1466   -0.9539 H         1 <0>         0.4441
@<TRIPOS>BOND
     1    1    4 1
     2    1    2 1
     3    1    7 1
     4    1    8 1
     5    2    9 1
     6    2   10 1
     7    2   13 1
     8    3    4 1
     9    3   11 1
    10    3   12 1
    11    3   13 1
    12    4    5 1
    13    4    6 1
    14   13   14 1
    15   13   15 1
@<TRIPOS>MOLECULE
ZINC33426575
   35    36     0     0     0
SMALL
USER_CHARGES
1-[(6S)-4,8-diazaspiro[5.5]undecan-4-yl]ethanone
@<TRIPOS>ATOM
      1 C1         -0.8269    2.7551   -3.3499 C.3       1 <0>        -0.1869
      2 C2         -0.0781    2.2596   -2.1396 C.2       1 <0>         0.5175
      3 O1          1.1101    2.4766   -2.0308 O.2       1 <0>        -0.5367
      4 N1         -0.7290    1.5754   -1.1780 N.am      1 <0>        -0.6158
      5 C3         -2.1682    1.3042   -1.2957 C.3       1 <0>         0.0928
      6 C4         -2.8695    1.7994   -0.0270 C.3       1 <0>        -0.1383
      7 C5         -2.2084    1.1629    1.1979 C.3       1 <0>        -0.1236
      8 C6         -0.7353    1.5826    1.2633 C.3       1 <0>        -0.0927
      9 C7         -0.0127    1.0858    0.0080 C.3       1 <0>         0.1200
     10 C8         -0.6423    3.1088    1.3341 C.3       1 <0>        -0.1279
     11 C9         -1.3145    3.5937    2.6217 C.3       1 <0>        -0.1493
     12 C10        -0.6403    2.9294    3.8243 C.3       1 <0>        -0.0020
     13 N2         -0.7581    1.4702    3.7097 N.4       1 <0>        -0.5341
     14 C11        -0.0794    0.9757    2.5048 C.3       1 <0>         0.0047
     15 H1         -1.8849    2.4645   -3.2709 H         1 <0>         0.0859
     16 H2         -0.3916    2.3114   -4.2574 H         1 <0>         0.1030
     17 H3         -0.7508    3.8511   -3.4048 H         1 <0>         0.1009
     18 H4         -2.5701    1.8314   -2.1735 H         1 <0>         0.1043
     19 H5         -2.3291    0.2223   -1.4123 H         1 <0>         0.0775
     20 H6         -2.7839    2.8943    0.0357 H         1 <0>         0.0772
     21 H7         -3.9318    1.5161   -0.0609 H         1 <0>         0.0900
     22 H8         -2.7250    1.4985    2.1092 H         1 <0>         0.0633
     23 H9         -2.2734    0.0675    1.1219 H         1 <0>         0.0835
     24 H10         0.0032   -0.0140   -0.0014 H         1 <0>         0.0779
     25 H11         1.0189    1.4675   -0.0031 H         1 <0>         0.1035
     26 H12         0.4150    3.4122    1.3323 H         1 <0>         0.0823
     27 H13        -1.1513    3.5480    0.4634 H         1 <0>         0.0947
     28 H14        -1.2130    4.6863    2.6993 H         1 <0>         0.1109
     29 H15        -2.3810    3.3250    2.6022 H         1 <0>         0.0885
     30 H16         0.4231    3.2098    3.8496 H         1 <0>         0.1277
     31 H17        -1.1300    3.2644    4.7505 H         1 <0>         0.1326
     32 H18        -0.3006    0.9952    4.5901 H         1 <0>         0.4559
     33 H19        -0.1597   -0.1206    2.4631 H         1 <0>         0.1352
     34 H20         0.9815    1.2646    2.5374 H         1 <0>         0.1318
     35 H21        -1.8207    1.1914    3.6533 H         1 <0>         0.4456
@<TRIPOS>BOND
     1    1    2 1
     2    1   15 1
     3    1   16 1
     4    1   17 1
     5    2    3 2
     6    2    4 am
     7    4    9 1
     8    4    5 1
     9    5    6 1
    10    5   18 1
    11    5   19 1
    12    6    7 1
    13    6   20 1
    14    6   21 1
    15    7    8 1
    16    7   22 1
    17    7   23 1
    18    8   14 1
    19    8    9 1
    20    8   10 1
    21    9   24 1
    22    9   25 1
    23   10   11 1
    24   10   26 1
    25   10   27 1
    26   11   12 1
    27   11   28 1
    28   11   29 1
    29   12   13 1
    30   12   30 1
    31   12   31 1
    32   13   14 1
    33   13   32 1
    34   13   35 1
    35   14   33 1
    36   14   34 1
@<TRIPOS>MOLECULE
ZINC39077667
   26    26     0     0     0
SMALL
USER_CHARGES

@<TRIPOS>ATOM
      1 C1         -0.0187    1.5258    0.0104 C.3       1 <0>        -0.1990
      2 C2          0.0021   -0.0041    0.0020 C.3       1 <0>         0.0637
      3 H1         -1.0201   -0.3824    0.0097 H         1 <0>         0.1182
      4 C3          0.7218   -0.4994   -1.2560 C.3       1 <0>        -0.1393
      5 C4          2.1837   -0.0464   -1.2076 C.3       1 <0>        -0.0121
      6 N1          2.8116   -0.5604    0.0168 N.4       1 <0>        -0.3811
      7 C5          2.1106   -0.0288    1.1920 C.3       1 <0>         0.1937
      8 H2          2.1303    1.0607    1.1638 H         1 <0>         0.1117
      9 N2          0.7157   -0.4923    1.1907 N.3       1 <0>        -0.6834
     10 C6          2.8064   -0.5176    2.4640 C.3       1 <0>        -0.1828
     11 C7          4.2194   -0.1427    0.0569 C.3       1 <0>        -0.0489
     12 H3          1.0039    1.9031    0.0027 H         1 <0>         0.0532
     13 H4         -0.5459    1.8868   -0.8726 H         1 <0>         0.0823
     14 H5         -0.5289    1.8773    0.9072 H         1 <0>         0.0725
     15 H6          0.6787   -1.5878   -1.2958 H         1 <0>         0.0979
     16 H7          0.2398   -0.0818   -2.1399 H         1 <0>         0.1180
     17 H8          2.7134   -0.4333   -2.0782 H         1 <0>         0.1343
     18 H9          2.2272    1.0428   -1.2091 H         1 <0>         0.1264
     19 H10         0.2403   -0.2160    2.0367 H         1 <0>         0.3871
     20 H11         3.8397   -0.1707    2.4690 H         1 <0>         0.0893
     21 H12         2.2864   -0.1232    3.3370 H         1 <0>         0.1032
     22 H13         2.7887   -1.6071    2.4920 H         1 <0>         0.0903
     23 H14         4.2757    0.9458    0.0487 H         1 <0>         0.1206
     24 H15         4.6858   -0.5239    0.9653 H         1 <0>         0.1286
     25 H16         4.7412   -0.5400   -0.8137 H         1 <0>         0.1278
     26 H17         2.7606   -1.5681    0.0228 H         1 <0>         0.4278
@<TRIPOS>BOND
     1    1    2 1
     2    1   12 1
     3    1   13 1
     4    1   14 1
     5    2    3 1
     6    2    9 1
     7    2    4 1
     8    4    5 1
     9    4   15 1
    10    4   16 1
    11    5    6 1
    12    5   17 1
    13    5   18 1
    14    6    7 1
    15    6   11 1
    16    6   26 1
    17    7    8 1
    18    7    9 1
    19    7   10 1
    20    9   19 1
    21   10   20 1
    22   10   21 1
    23   10   22 1
    24   11   23 1
    25   11   24 1
    26   11   25 1
@<TRIPOS>MOLECULE
ZINC42545483
   34    35     0     0     0
SMALL
USER_CHARGES

@<TRIPOS>ATOM
      1 C1         -0.0178    1.4648    0.0101 C.3       1 <0>        -0.0417
      2 N1          0.0021   -0.0041    0.0020 N.4       1 <0>        -0.3950
      3 C2         -1.3755   -0.5431    0.1387 C.3       1 <0>        -0.0010
      4 C3         -1.1803   -1.9787    0.6719 C.3       1 <0>        -0.1474
      5 C4          0.1959   -1.9639    1.3686 C.3       1 <0>         0.0651
      6 H1          0.8720   -2.6698    0.8863 H         1 <0>         0.0822
      7 C5          0.7164   -0.5206    1.1978 C.3       1 <0>        -0.0087
      8 N2          0.0499   -2.2906    2.7934 N.3       1 <0>        -0.6717
      9 C6          0.0741   -3.7440    3.0053 C.3       1 <0>         0.0856
     10 C7         -1.3342   -4.3139    2.8094 C.3       1 <0>        -0.1474
     11 C8         -1.3150   -5.8151    3.1091 C.3       1 <0>         0.0566
     12 O1         -0.8421   -6.0277    4.4407 O.3       1 <0>        -0.3759
     13 C9          0.4879   -5.5576    4.6695 C.3       1 <0>         0.0610
     14 C10         0.5411   -4.0460    4.4326 C.3       1 <0>        -0.1610
     15 H2          1.0047    1.8421    0.0024 H         1 <0>         0.1227
     16 H3         -0.5450    1.8259   -0.8730 H         1 <0>         0.1247
     17 H4         -0.5280    1.8163    0.9069 H         1 <0>         0.1224
     18 H5         -1.9478    0.0521    0.8502 H         1 <0>         0.1347
     19 H6         -1.8742   -0.5621   -0.8304 H         1 <0>         0.1342
     20 H7         -1.9643   -2.2267    1.3874 H         1 <0>         0.1248
     21 H8         -1.1797   -2.6919   -0.1524 H         1 <0>         0.0978
     22 H9          1.7928   -0.5225    1.0262 H         1 <0>         0.1349
     23 H10         0.4715    0.0782    2.0751 H         1 <0>         0.1409
     24 H11         0.7610   -1.8330    3.3439 H         1 <0>         0.3536
     25 H12         0.7579   -4.2052    2.2927 H         1 <0>         0.0545
     26 H13        -2.0264   -3.8158    3.4882 H         1 <0>         0.0838
     27 H14        -1.6526   -4.1521    1.7796 H         1 <0>         0.0720
     28 H15        -2.3233   -6.2179    3.0128 H         1 <0>         0.1009
     29 H16        -0.6536   -6.3181    2.4037 H         1 <0>         0.0508
     30 H17         0.7784   -5.7748    5.6974 H         1 <0>         0.1026
     31 H18         1.1729   -6.0573    3.9846 H         1 <0>         0.0526
     32 H19         1.5639   -3.6926    4.5636 H         1 <0>         0.0756
     33 H20        -0.1132   -3.5425    5.1442 H         1 <0>         0.0862
     34 H21         0.4347   -0.3465   -0.8428 H         1 <0>         0.4297
@<TRIPOS>BOND
     1    1    2 1
     2    1   15 1
     3    1   16 1
     4    1   17 1
     5    2    7 1
     6    2    3 1
     7    2   34 1
     8    3    4 1
     9    3   18 1
    10    3   19 1
    11    4    5 1
    12    4   20 1
    13    4   21 1
    14    5    6 1
    15    5    7 1
    16    5    8 1
    17    7   22 1
    18    7   23 1
    19    8    9 1
    20    8   24 1
    21    9   14 1
    22    9   10 1
    23    9   25 1
    24   10   11 1
    25   10   26 1
    26   10   27 1
    27   11   12 1
    28   11   28 1
    29   11   29 1
    30   12   13 1
    31   13   14 1
    32   13   30 1
    33   13   31 1
    34   14   32 1
    35   14   33 1
@<TRIPOS>MOLECULE
ZINC61932689
   35    35     0     0     0
SMALL
USER_CHARGES

@<TRIPOS>ATOM
      1 C1         -0.2185    1.7381   -0.1121 C.3       1 <0>        -0.1598
      2 C2         -0.1350    0.2112   -0.0633 C.3       1 <0>         0.0716
      3 H1          0.4001   -0.1353   -0.9475 H         1 <0>         0.0819
      4 C3         -1.5661   -0.3611   -0.0987 C.3       1 <0>        -0.0364
      5 N1         -1.6149   -1.7756    0.3486 N.4       1 <0>        -0.3737
      6 C4         -0.5146   -2.5528   -0.1602 C.3       1 <0>        -0.0310
      7 C5          0.5966   -2.5492    0.9024 C.3       1 <0>        -0.1777
      8 C6          1.4124   -1.3378    0.8553 C.3       1 <0>         0.0386
      9 O1          0.5925   -0.1602    1.0731 O.3       1 <0>        -0.3598
     10 C7         -2.8741   -2.3764   -0.1115 C.3       1 <0>         0.0214
     11 H2         -3.7116   -1.7605    0.2162 H         1 <0>         0.1456
     12 C8         -2.8704   -2.4611   -1.6391 C.3       1 <0>        -0.1765
     13 C9         -3.0135   -3.7818    0.4769 C.3       1 <0>         0.0904
     14 H3         -2.1676   -4.3930    0.1623 H         1 <0>         0.0779
     15 C10        -3.0399   -3.6950    2.0042 C.3       1 <0>        -0.2134
     16 O2         -4.2282   -4.3743    0.0125 O.3       1 <0>        -0.5480
     17 H4          0.7878    2.1568   -0.1251 H         1 <0>         0.0852
     18 H5         -0.7511    2.0443   -1.0124 H         1 <0>         0.0814
     19 H6         -0.7517    2.1011    0.7666 H         1 <0>         0.0754
     20 H7         -2.2029    0.2380    0.5522 H         1 <0>         0.1365
     21 H8         -1.9468   -0.2990   -1.1181 H         1 <0>         0.1409
     22 H9         -0.8414   -3.5754   -0.3489 H         1 <0>         0.1401
     23 H10        -0.1438   -2.1070   -1.0832 H         1 <0>         0.1338
     24 H11         0.1408   -2.6291    1.8893 H         1 <0>         0.0936
     25 H12         1.2402   -3.4142    0.7424 H         1 <0>         0.1255
     26 H13         2.1781   -1.3904    1.6292 H         1 <0>         0.1209
     27 H14         1.8934   -1.2667   -0.1203 H         1 <0>         0.0765
     28 H15        -2.7332   -1.4642   -2.0580 H         1 <0>         0.0809
     29 H16        -2.0556   -3.1075   -1.9652 H         1 <0>         0.0801
     30 H17        -3.8198   -2.8720   -1.9825 H         1 <0>         0.1142
     31 H18        -3.2529   -4.6796    2.4205 H         1 <0>         0.0910
     32 H19        -2.0711   -3.3497    2.3653 H         1 <0>         0.0640
     33 H20        -3.8144   -2.9938    2.3150 H         1 <0>         0.0817
     34 H21        -4.3824   -5.2685    0.3465 H         1 <0>         0.4042
     35 H22        -1.5930   -1.8000    1.3571 H         1 <0>         0.4230
@<TRIPOS>BOND
     1    1    2 1
     2    1   17 1
     3    1   18 1
     4    1   19 1
     5    2    3 1
     6    2    9 1
     7    2    4 1
     8    4    5 1
     9    4   20 1
    10    4   21 1
    11    5    6 1
    12    5   10 1
    13    5   35 1
    14    6    7 1
    15    6   22 1
    16    6   23 1
    17    7    8 1
    18    7   24 1
    19    7   25 1
    20    8    9 1
    21    8   26 1
    22    8   27 1
    23   10   11 1
    24   10   12 1
    25   10   13 1
    26   12   28 1
    27   12   29 1
    28   12   30 1
    29   13   14 1
    30   13   15 1
    31   13   16 1
    32   15   31 1
    33   15   32 1
    34   15   33 1
    35   16   34 1
@<TRIPOS>MOLECULE
ZINC03181113
   32    34     0     0     0
SMALL
USER_CHARGES
N-(5-methylisoxazol-3-yl)-4,5,6,7-tetrahydrobenzothiophene-2-carboxamide
@<TRIPOS>ATOM
      1 C1         -1.2368    2.2321    0.0203 C.3       1 <0>        -0.0756
      2 C2         -0.0163    1.3482    0.0095 C.2       1 <0>        -0.0182
      3 C3          0.0021   -0.0041    0.0020 C.2       1 <0>        -0.2280
      4 C4          1.3850   -0.3279   -0.0129 C.2       1 <0>         0.2468
      5 N1          2.0265    0.8114   -0.0129 N.2       1 <0>        -0.3868
      6 O1          1.2633    1.7491   -0.0006 O.3       1 <0>         0.1006
      7 N2          1.9457   -1.6040   -0.0255 N.am      1 <0>        -0.6275
      8 C5          1.1482   -2.6905   -0.0242 C.2       1 <0>         0.6210
      9 O2         -0.0615   -2.5573   -0.0120 O.2       1 <0>        -0.4997
     10 C6          1.7375   -4.0319   -0.0375 C.2       1 <0>        -0.2552
     11 C7          1.1058   -5.2622   -0.0385 C.2       1 <0>        -0.0453
     12 C8          1.8932   -6.4018   -0.0532 C.2       1 <0>        -0.1435
     13 C9          3.2462   -6.2145   -0.0652 C.2       1 <0>        -0.1440
     14 S1          3.4583   -4.5053   -0.0644 S.3       1 <0>         0.1490
     15 C10         4.3043   -7.2743   -0.0813 C.3       1 <0>        -0.0475
     16 C11         3.6536   -8.6139    0.2925 C.3       1 <0>        -0.1153
     17 C12         2.3782   -8.7900   -0.5362 C.3       1 <0>        -0.1228
     18 C13         1.3059   -7.8108   -0.0573 C.3       1 <0>        -0.0583
     19 H1         -1.5259    2.4396    1.0506 H         1 <0>         0.0909
     20 H2         -1.0115    3.1688   -0.4895 H         1 <0>         0.0861
     21 H3         -2.0556    1.7272   -0.4922 H         1 <0>         0.0943
     22 H4         -0.8396   -0.6808    0.0061 H         1 <0>         0.1912
     23 H5          2.9098   -1.7101   -0.0353 H         1 <0>         0.4184
     24 H6          0.0281   -5.3325   -0.0278 H         1 <0>         0.1479
     25 H7          5.0810   -7.0286    0.6429 H         1 <0>         0.0873
     26 H8          4.7398   -7.3432   -1.0782 H         1 <0>         0.0906
     27 H9          3.4032   -8.6151    1.3534 H         1 <0>         0.0700
     28 H10         4.3438   -9.4301    0.0790 H         1 <0>         0.0770
     29 H11         2.0121   -9.8106   -0.4247 H         1 <0>         0.0727
     30 H12         2.6008   -8.5980   -1.5859 H         1 <0>         0.0667
     31 H13         0.9912   -8.0784    0.9514 H         1 <0>         0.0787
     32 H14         0.4500   -7.8480   -0.7312 H         1 <0>         0.0784
@<TRIPOS>BOND
     1    1    2 1
     2    1   19 1
     3    1   20 1
     4    1   21 1
     5    2    6 1
     6    2    3 2
     7    3    4 1
     8    3   22 1
     9    4    5 2
    10    4    7 1
    11    5    6 1
    12    7    8 am
    13    7   23 1
    14    8    9 2
    15    8   10 1
    16   10   14 1
    17   10   11 2
    18   11   12 1
    19   11   24 1
    20   12   18 1
    21   12   13 2
    22   13   14 1
    23   13   15 1
    24   15   16 1
    25   15   25 1
    26   15   26 1
    27   16   17 1
    28   16   27 1
    29   16   28 1
    30   17   18 1
    31   17   29 1
    32   17   30 1
    33   18   31 1
    34   18   32 1
@<TRIPOS>MOLECULE
ZINC36153606
   25    27     0     0     0
SMALL
USER_CHARGES

@<TRIPOS>ATOM
      1 C1         -0.0166    1.3752    0.0096 C.ar      1 <0>        -0.1187
      2 C2          1.1702    2.0869    0.0021 C.ar      1 <0>        -0.0888
      3 C3          2.3828    1.4219   -0.0135 C.ar      1 <0>        -0.1134
      4 C4          2.4162    0.0412   -0.0213 C.ar      1 <0>        -0.0019
      5 C5          1.2218   -0.6826   -0.0133 C.ar      1 <0>        -0.0184
      6 C6          0.0021   -0.0041    0.0020 C.ar      1 <0>        -0.0862
      7 C7          1.2492   -2.1606   -0.0220 C.2       1 <0>         0.2532
      8 N1          2.3217   -2.9218   -0.0315 N.2       1 <0>        -0.2446
      9 N2          1.9812   -4.1656   -0.0453 N.2       1 <0>        -0.2417
     10 C8          0.6841   -4.2617   -0.0478 C.2       1 <0>         0.1369
     11 N3          0.1603   -2.9960   -0.0158 N.pl3     1 <0>        -0.3198
     12 N4         -1.1541   -2.6641    0.0272 N.3       1 <0>        -0.4525
     13 C9         -2.0607   -3.6745   -0.5154 C.3       1 <0>         0.0405
     14 C10        -1.9662   -4.9836    0.2838 C.3       1 <0>        -0.1639
     15 S1         -0.3284   -5.7108   -0.0821 S.3       1 <0>         0.0278
     16 Cl1         3.9388   -0.7924   -0.0415 Cl        1 <0>        -0.0253
     17 H1         -0.9599    1.9009    0.0260 H         1 <0>         0.1361
     18 H2          1.1494    3.1667    0.0081 H         1 <0>         0.1378
     19 H3          3.3053    1.9833   -0.0200 H         1 <0>         0.1423
     20 H4         -0.9251   -0.5578    0.0083 H         1 <0>         0.1476
     21 H5         -1.4289   -2.3955    0.9602 H         1 <0>         0.3681
     22 H6         -3.0833   -3.2998   -0.4695 H         1 <0>         0.1319
     23 H7         -1.7981   -3.8699   -1.5551 H         1 <0>         0.1079
     24 H8         -2.0563   -4.7756    1.3500 H         1 <0>         0.1032
     25 H9         -2.7538   -5.6686   -0.0302 H         1 <0>         0.1419
@<TRIPOS>BOND
     1    1    6 ar
     2    1    2 ar
     3    1   17 1
     4    2    3 ar
     5    2   18 1
     6    3    4 ar
     7    3   19 1
     8    4    5 ar
     9    4   16 1
    10    5    6 ar
    11    5    7 1
    12    6   20 1
    13    7   11 1
    14    7    8 2
    15    8    9 1
    16    9   10 2
    17   10   15 1
    18   10   11 1
    19   11   12 1
    20   12   13 1
    21   12   21 1
    22   13   14 1
    23   13   22 1
    24   13   23 1
    25   14   15 1
    26   14   24 1
    27   14   25 1
@<TRIPOS>MOLECULE
ZINC41598626
   36    38     0     0     0
SMALL
USER_CHARGES

@<TRIPOS>ATOM
      1 C1         -0.0187    1.5258    0.0104 C.3       1 <0>        -0.1683
      2 C2          0.0021   -0.0041    0.0020 C.3       1 <0>        -0.1169
      3 C3         -1.4333   -0.5336    0.0129 C.3       1 <0>         0.1187
      4 C4         -2.2343    0.1262    1.1168 C.2       1 <0>         0.5187
      5 O1         -2.0190    0.0779    2.3089 O.2       1 <0>        -0.4358
      6 N1         -3.2367    0.7794    0.4943 N.am      1 <0>        -0.6854
      7 C5         -3.1611    0.6118   -0.8323 C.2       1 <0>         0.6501
      8 O2         -3.9466    1.0971   -1.6214 O.2       1 <0>        -0.4672
      9 O3         -2.1186   -0.1542   -1.1902 O.3       1 <0>        -0.2861
     10 C6         -1.4407   -2.0319    0.1745 C.ar      1 <0>        -0.1072
     11 C7         -0.4310   -2.6583    0.8816 C.ar      1 <0>        -0.0904
     12 C8         -0.4432   -4.0304    1.0226 C.ar      1 <0>        -0.1165
     13 C9         -1.4627   -4.7887    0.4612 C.ar      1 <0>        -0.0579
     14 C10        -2.4706   -4.1647   -0.2384 C.ar      1 <0>        -0.0720
     15 C11        -2.4577   -2.7826   -0.3776 C.ar      1 <0>        -0.0935
     16 C12        -3.6153   -4.9215   -0.8596 C.3       1 <0>        -0.0839
     17 C13        -3.2716   -6.4040   -0.9894 C.3       1 <0>        -0.1207
     18 C14        -2.7758   -6.9069    0.3714 C.3       1 <0>        -0.1219
     19 C15        -1.4095   -6.2826    0.6472 C.3       1 <0>        -0.0851
     20 H1          1.0039    1.9031    0.0027 H         1 <0>         0.0794
     21 H2         -0.5459    1.8868   -0.8726 H         1 <0>         0.0625
     22 H3         -0.5289    1.8773    0.9072 H         1 <0>         0.0556
     23 H4          0.5123   -0.3556   -0.8948 H         1 <0>         0.1016
     24 H5          0.5293   -0.3651    0.8851 H         1 <0>         0.1034
     25 H6         -3.9197    1.2995    0.9459 H         1 <0>         0.4435
     26 H7          0.3645   -2.0754    1.3216 H         1 <0>         0.1331
     27 H8          0.3466   -4.5191    1.5738 H         1 <0>         0.1306
     28 H9         -3.2479   -2.2922   -0.9267 H         1 <0>         0.1222
     29 H10        -4.5008   -4.8114   -0.2335 H         1 <0>         0.0779
     30 H11        -3.8220   -4.5126   -1.8486 H         1 <0>         0.0774
     31 H12        -4.1598   -6.9621   -1.2856 H         1 <0>         0.0705
     32 H13        -2.4890   -6.5353   -1.7366 H         1 <0>         0.0673
     33 H14        -3.4785   -6.6111    1.1504 H         1 <0>         0.0664
     34 H15        -2.6858   -7.9930    0.3508 H         1 <0>         0.0707
     35 H16        -0.6762   -6.7045   -0.0401 H         1 <0>         0.0807
     36 H17        -1.1119   -6.5070    1.6715 H         1 <0>         0.0783
@<TRIPOS>BOND
     1    1    2 1
     2    1   20 1
     3    1   21 1
     4    1   22 1
     5    2    3 1
     6    2   23 1
     7    2   24 1
     8    3    9 1
     9    3    4 1
    10    3   10 1
    11    4    5 2
    12    4    6 am
    13    6    7 am
    14    6   25 1
    15    7    8 2
    16    7    9 1
    17   10   15 ar
    18   10   11 ar
    19   11   12 ar
    20   11   26 1
    21   12   13 ar
    22   12   27 1
    23   13   19 1
    24   13   14 ar
    25   14   15 ar
    26   14   16 1
    27   15   28 1
    28   16   17 1
    29   16   29 1
    30   16   30 1
    31   17   18 1
    32   17   31 1
    33   17   32 1
    34   18   19 1
    35   18   33 1
    36   18   34 1
    37   19   35 1
    38   19   36 1
@<TRIPOS>MOLECULE
ZINC50963679
   26    27     0     0     0
SMALL
USER_CHARGES

@<TRIPOS>ATOM
      1 C1         -0.0158    1.3164    0.0093 C.2       1 <0>         0.1178
      2 C2          1.1843    1.9486    0.0012 C.2       1 <0>        -0.2534
      3 S1          2.2960    0.5517   -0.0169 S.3       1 <0>         0.1742
      4 C3          1.1369   -0.6685   -0.0124 C.2       1 <0>         0.2837
      5 N1          0.0021   -0.0041    0.0020 N.2       1 <0>        -0.5194
      6 N2          1.3318   -2.0451   -0.0220 N.am      1 <0>        -0.6200
      7 C4          0.2707   -2.8760   -0.0163 C.2       1 <0>         0.5120
      8 O1         -0.8543   -2.4229   -0.0027 O.2       1 <0>        -0.4380
      9 C5          0.4819   -4.3681   -0.0267 C.3       1 <0>         0.0837
     10 H1          1.1247   -4.6500    0.8072 H         1 <0>         0.0921
     11 C6          1.1440   -4.7807   -1.3439 C.3       1 <0>        -0.1494
     12 C7          1.3005   -6.3042   -1.3724 C.3       1 <0>        -0.1210
     13 C8         -0.0753   -6.9513   -1.1856 C.3       1 <0>        -0.1613
     14 C9         -0.6903   -6.4548    0.1255 C.3       1 <0>         0.0598
     15 O2         -0.7790   -5.0288    0.0988 O.3       1 <0>        -0.3534
     16 Br1         1.5728    3.7993    0.0069 Br        1 <0>         0.0563
     17 H2         -0.9442    1.8681    0.0255 H         1 <0>         0.1848
     18 H3          2.2315   -2.4075   -0.0329 H         1 <0>         0.4279
     19 H4          0.5211   -4.4628   -2.1800 H         1 <0>         0.0822
     20 H5          2.1252   -4.3123   -1.4208 H         1 <0>         0.0804
     21 H6          1.7200   -6.6099   -2.3309 H         1 <0>         0.0766
     22 H7          1.9634   -6.6178   -0.5661 H         1 <0>         0.0695
     23 H8         -0.7229   -6.6773   -2.0185 H         1 <0>         0.0755
     24 H9          0.0339   -8.0352   -1.1492 H         1 <0>         0.0799
     25 H10        -1.6876   -6.8789    0.2427 H         1 <0>         0.1038
     26 H11        -0.0630   -6.7643    0.9614 H         1 <0>         0.0558
@<TRIPOS>BOND
     1    1    5 1
     2    1    2 2
     3    1   17 1
     4    2    3 1
     5    2   16 1
     6    3    4 1
     7    4    5 2
     8    4    6 1
     9    6    7 am
    10    6   18 1
    11    7    8 2
    12    7    9 1
    13    9   10 1
    14    9   15 1
    15    9   11 1
    16   11   12 1
    17   11   19 1
    18   11   20 1
    19   12   13 1
    20   12   21 1
    21   12   22 1
    22   13   14 1
    23   13   23 1
    24   13   24 1
    25   14   15 1
    26   14   25 1
    27   14   26 1
@<TRIPOS>MOLECULE
ZINC50726668
   42    44     0     0     0
SMALL
USER_CHARGES

@<TRIPOS>ATOM
      1 C1          2.9868    0.1635    0.8036 C.3       1 <0>         0.0895
      2 N1          1.9593   -0.8424    0.5234 N.pl3     1 <0>        -0.7236
      3 C2          1.5710   -1.0916   -0.7849 C.ar      1 <0>         0.4302
      4 C3          2.1822   -0.3705   -1.8207 C.ar      1 <0>        -0.1851
      5 C4          1.8039   -0.6099   -3.1329 C.ar      1 <0>        -0.0230
      6 C5          0.7698   -1.6203   -3.3603 C.ar      1 <0>        -0.1173
      7 C6          0.3225   -1.9320   -4.6489 C.ar      1 <0>        -0.0746
      8 C7         -0.6427   -2.8804   -4.8155 C.ar      1 <0>        -0.1339
      9 C8         -1.1891   -3.5423   -3.7186 C.ar      1 <0>        -0.0843
     10 C9         -0.7763   -3.2622   -2.4519 C.ar      1 <0>        -0.1124
     11 C10         0.2181   -2.2906   -2.2413 C.ar      1 <0>         0.1864
     12 N2          0.6475   -1.9986   -1.0100 N.ar      1 <0>        -0.5430
     13 C11         2.4205    0.1266   -4.2580 C.2       1 <0>         0.5596
     14 O1          3.0109   -0.4796   -5.1304 O.2       1 <0>        -0.5184
     15 N3          2.3274    1.4699   -4.3157 N.am      1 <0>        -0.5940
     16 C12         1.7067    2.1696   -3.2132 C.3       1 <0>         0.0942
     17 C13         0.1830    2.2868   -3.4642 C.3       1 <0>        -0.1359
     18 C14        -0.0841    3.2467   -4.5463 C.3       1 <0>        -0.1190
     19 C15         0.4918    2.8436   -5.9003 C.3       1 <0>        -0.1175
     20 C16         1.9303    3.2909   -5.9853 C.3       1 <0>        -0.1310
     21 C17         2.8688    2.1666   -5.4990 C.3       1 <0>         0.1109
     22 H1          3.9138   -0.1146    0.3022 H         1 <0>         0.0579
     23 H2          2.6535    1.1349    0.4383 H         1 <0>         0.0576
     24 H3          3.1577    0.2187    1.8787 H         1 <0>         0.0843
     25 H4          1.5504   -1.3342    1.2527 H         1 <0>         0.4104
     26 H5          2.9408    0.3653   -1.5982 H         1 <0>         0.1433
     27 H6          0.7391   -1.4241   -5.5062 H         1 <0>         0.1265
     28 H7         -0.9881   -3.1211   -5.8101 H         1 <0>         0.1275
     29 H8         -1.9528   -4.2896   -3.8754 H         1 <0>         0.1304
     30 H9         -1.2108   -3.7842   -1.6122 H         1 <0>         0.1359
     31 H10         1.8809    1.6182   -2.2892 H         1 <0>         0.0869
     32 H11         2.1381    3.1668   -3.1271 H         1 <0>         0.0841
     33 H12        -0.2130    1.3102   -3.7424 H         1 <0>         0.0647
     34 H13        -0.3079    2.6258   -2.5519 H         1 <0>         0.0751
     35 H14        -1.1632    3.3608   -4.6492 H         1 <0>         0.0599
     36 H15         0.3370    4.2118   -4.2645 H         1 <0>         0.0609
     37 H16         0.4408    1.7603   -6.0092 H         1 <0>         0.0638
     38 H17        -0.0838    3.3169   -6.6958 H         1 <0>         0.0659
     39 H18         2.1706    3.5408   -7.0187 H         1 <0>         0.0789
     40 H19         2.0722    4.1723   -5.3599 H         1 <0>         0.0683
     41 H20         3.8383    2.5950   -5.2447 H         1 <0>         0.0682
     42 H21         3.0031    1.4443   -6.3042 H         1 <0>         0.0917
@<TRIPOS>BOND
     1    1    2 1
     2    1   22 1
     3    1   23 1
     4    1   24 1
     5    2    3 1
     6    2   25 1
     7    3   12 ar
     8    3    4 ar
     9    4    5 ar
    10    4   26 1
    11    5    6 ar
    12    5   13 1
    13    6   11 ar
    14    6    7 ar
    15    7    8 ar
    16    7   27 1
    17    8    9 ar
    18    8   28 1
    19    9   10 ar
    20    9   29 1
    21   10   11 ar
    22   10   30 1
    23   11   12 ar
    24   13   14 2
    25   13   15 am
    26   15   21 1
    27   15   16 1
    28   16   17 1
    29   16   31 1
    30   16   32 1
    31   17   18 1
    32   17   33 1
    33   17   34 1
    34   18   19 1
    35   18   35 1
    36   18   36 1
    37   19   20 1
    38   19   37 1
    39   19   38 1
    40   20   21 1
    41   20   39 1
    42   20   40 1
    43   21   41 1
    44   21   42 1
@<TRIPOS>MOLECULE
ZINC08727489
   42    45     0     0     0
SMALL
USER_CHARGES
3-[(dioxoBLAHyl)methyl]benzonitrile
@<TRIPOS>ATOM
      1 C1         -3.4249    1.4434    3.6262 C.ar      1 <0>        -0.0997
      2 C2         -2.0428    1.4810    3.6364 C.ar      1 <0>        -0.1197
      3 C3         -1.3544    1.6946    2.4604 C.ar      1 <0>        -0.0978
      4 C4         -2.0379    1.8728    1.2644 C.ar      1 <0>        -0.0923
      5 C5         -3.4151    1.8318    1.2541 C.ar      1 <0>        -0.0488
      6 C6         -4.1061    1.6183    2.4396 C.ar      1 <0>        -0.1216
      7 C7         -4.2184    2.0042   -0.0082 C.3       1 <0>        -0.0887
      8 C8         -3.3756    2.6639   -1.0977 C.3       1 <0>        -0.1154
      9 C9         -2.0639    1.8813   -1.2370 C.3       1 <0>        -0.1175
     10 C10        -1.2310    2.1069    0.0185 C.3       1 <0>         0.1715
     11 C11        -0.0144    1.2081    0.0087 C.2       1 <0>         0.5351
     12 O1          0.0021   -0.0041    0.0020 O.2       1 <0>        -0.4497
     13 N1          1.0483    2.0388    0.0030 N.am      1 <0>        -0.5753
     14 C12         0.6706    3.3228    0.0137 C.2       1 <0>         0.7044
     15 O2          1.4489    4.2563    0.0114 O.2       1 <0>        -0.5352
     16 N2         -0.6684    3.4642    0.0266 N.am      1 <0>        -0.7131
     17 C13         2.4431    1.5910   -0.0129 C.3       1 <0>         0.1585
     18 C14         2.9077    1.4453   -1.4390 C.ar      1 <0>        -0.1229
     19 C15         3.4871    2.5205   -2.0896 C.ar      1 <0>        -0.0610
     20 C16         3.9169    2.3953   -3.3986 C.ar      1 <0>        -0.1214
     21 C17         3.7701    1.1959   -4.0645 C.ar      1 <0>        -0.0588
     22 C18         3.1864    0.1070   -3.4142 C.ar      1 <0>        -0.0311
     23 C19         2.7596    0.2389   -2.0910 C.ar      1 <0>        -0.0488
     24 C20         3.0309   -1.1409   -4.0991 C.1       1 <0>         0.2499
     25 N3          2.9075   -2.1309   -4.6425 N.1       1 <0>        -0.4087
     26 H1         -3.9692    1.2781    4.5443 H         1 <0>         0.1283
     27 H2         -1.5040    1.3439    4.5622 H         1 <0>         0.1275
     28 H3         -0.2748    1.7240    2.4697 H         1 <0>         0.1132
     29 H4         -5.1856    1.5886    2.4323 H         1 <0>         0.1282
     30 H5         -4.5545    1.0275   -0.3562 H         1 <0>         0.0857
     31 H6         -5.0866    2.6291    0.2012 H         1 <0>         0.0837
     32 H7         -3.9172    2.6424   -2.0434 H         1 <0>         0.0830
     33 H8         -3.1622    3.6965   -0.8211 H         1 <0>         0.0691
     34 H9         -1.5157    2.2375   -2.1091 H         1 <0>         0.0835
     35 H10        -2.2812    0.8188   -1.3462 H         1 <0>         0.0938
     36 H11        -1.1639    4.2980    0.0356 H         1 <0>         0.4406
     37 H12         3.0660    2.3246    0.4990 H         1 <0>         0.1130
     38 H13         2.5220    0.6298    0.4950 H         1 <0>         0.1083
     39 H14         3.6041    3.4617   -1.5732 H         1 <0>         0.1387
     40 H15         4.3685    3.2383   -3.9004 H         1 <0>         0.1384
     41 H16         4.1063    1.0994   -5.0863 H         1 <0>         0.1359
     42 H17         2.3110   -0.6006   -1.5808 H         1 <0>         0.1371
@<TRIPOS>BOND
     1    1    6 ar
     2    1    2 ar
     3    1   26 1
     4    2    3 ar
     5    2   27 1
     6    3    4 ar
     7    3   28 1
     8    4   10 1
     9    4    5 ar
    10    5    6 ar
    11    5    7 1
    12    6   29 1
    13    7    8 1
    14    7   30 1
    15    7   31 1
    16    8    9 1
    17    8   32 1
    18    8   33 1
    19    9   10 1
    20    9   34 1
    21    9   35 1
    22   10   16 1
    23   10   11 1
    24   11   12 2
    25   11   13 am
    26   13   14 am
    27   13   17 1
    28   14   15 2
    29   14   16 am
    30   16   36 1
    31   17   18 1
    32   17   37 1
    33   17   38 1
    34   18   23 ar
    35   18   19 ar
    36   19   20 ar
    37   19   39 1
    38   20   21 ar
    39   20   40 1
    40   21   22 ar
    41   21   41 1
    42   22   23 ar
    43   22   24 1
    44   23   42 1
    45   24   25 3
@<TRIPOS>MOLECULE
ZINC33779096
   43    46     0     0     0
SMALL
USER_CHARGES
8-chloro-6-(4-methyl-4-oxido-piperazin-4-ium-1-yl)-11H-benzo[b][1,4]benzodiazepine
@<TRIPOS>ATOM
      1 C1          1.3600    1.9649   -0.0651 C.3       1 <0>        -0.0175
      2 N1         -0.0183    1.4585   -0.0214 N.4       1 <0>        -0.1194
      3 O1          0.0023   -0.0039    0.0146 O.3       1 <0>        -0.6418
      4 C2         -0.6865    1.9666    1.1833 C.3       1 <0>         0.0032
      5 C3         -2.0833    1.3502    1.2919 C.3       1 <0>         0.1073
      6 N2         -2.8080    1.6167    0.0397 N.pl3     1 <0>        -0.5998
      7 C4         -2.1422    1.2873   -1.2301 C.3       1 <0>         0.1220
      8 C5         -0.7407    1.9067   -1.2186 C.3       1 <0>         0.0049
      9 C6         -4.0728    2.1592    0.0557 C.2       1 <0>         0.5037
     10 N3         -4.5800    2.4868   -1.0799 N.2       1 <0>        -0.5932
     11 C7         -5.8072    3.0209   -1.3293 C.ar      1 <0>         0.1413
     12 C8         -6.5320    2.5719   -2.4366 C.ar      1 <0>        -0.1094
     13 C9         -7.7595    3.1290   -2.7361 C.ar      1 <0>        -0.1105
     14 C10        -8.2794    4.1365   -1.9454 C.ar      1 <0>        -0.1262
     15 C11        -7.5794    4.5795   -0.8357 C.ar      1 <0>        -0.1158
     16 C12        -6.3578    4.0146   -0.5121 C.ar      1 <0>         0.1127
     17 N4         -5.7109    4.4058    0.6710 N.pl3     1 <0>        -0.7371
     18 C13        -5.4861    3.4431    1.6571 C.ar      1 <0>         0.2282
     19 C14        -4.7186    2.3039    1.3694 C.ar      1 <0>        -0.1349
     20 C15        -4.5543    1.3236    2.3443 C.ar      1 <0>        -0.0642
     21 C16        -5.1234    1.4876    3.5926 C.ar      1 <0>        -0.0589
     22 C17        -5.8522    2.6281    3.8834 C.ar      1 <0>        -0.0672
     23 C18        -6.0347    3.6035    2.9198 C.ar      1 <0>        -0.1338
     24 Cl1        -4.9233    0.2582    4.8018 Cl        1 <0>        -0.0579
     25 H1          1.9023    1.6298    0.8313 H         1 <0>         0.0995
     26 H2          1.3459    3.0644   -0.0955 H         1 <0>         0.0805
     27 H3          1.8638    1.5797   -0.9639 H         1 <0>         0.1002
     28 H4         -0.0967    1.6959    2.0715 H         1 <0>         0.1162
     29 H5         -0.7732    3.0614    1.1204 H         1 <0>         0.0901
     30 H6         -1.9940    0.2655    1.4511 H         1 <0>         0.0999
     31 H7         -2.6187    1.8024    2.1398 H         1 <0>         0.1053
     32 H8         -2.0691    0.1946   -1.3331 H         1 <0>         0.0917
     33 H9         -2.7267    1.6962   -2.0675 H         1 <0>         0.1172
     34 H10        -0.8242    3.0035   -1.2073 H         1 <0>         0.0898
     35 H11        -0.1921    1.5900   -2.1179 H         1 <0>         0.1146
     36 H12        -6.1310    1.7863   -3.0599 H         1 <0>         0.1268
     37 H13        -8.3156    2.7763   -3.5921 H         1 <0>         0.1258
     38 H14        -9.2328    4.5790   -2.1936 H         1 <0>         0.1245
     39 H15        -7.9880    5.3678   -0.2208 H         1 <0>         0.1228
     40 H16        -5.3937    5.4505    0.8048 H         1 <0>         0.4306
     41 H17        -3.9843    0.4334    2.1230 H         1 <0>         0.1450
     42 H18        -6.2797    2.7570    4.8668 H         1 <0>         0.1422
     43 H19        -6.6048    4.4910    3.1516 H         1 <0>         0.1417
@<TRIPOS>BOND
     1    1    2 1
     2    1   25 1
     3    1   26 1
     4    1   27 1
     5    2    8 1
     6    2    3 1
     7    2    4 1
     8    4    5 1
     9    4   28 1
    10    4   29 1
    11    5    6 1
    12    5   30 1
    13    5   31 1
    14    6    7 1
    15    6    9 1
    16    7    8 1
    17    7   32 1
    18    7   33 1
    19    8   34 1
    20    8   35 1
    21    9   19 1
    22    9   10 2
    23   10   11 1
    24   11   16 ar
    25   11   12 ar
    26   12   13 ar
    27   12   36 1
    28   13   14 ar
    29   13   37 1
    30   14   15 ar
    31   14   38 1
    32   15   16 ar
    33   15   39 1
    34   16   17 1
    35   17   18 1
    36   17   40 1
    37   18   23 ar
    38   18   19 ar
    39   19   20 ar
    40   20   21 ar
    41   20   41 1
    42   21   22 ar
    43   21   24 1
    44   22   23 ar
    45   22   42 1
    46   23   43 1
@<TRIPOS>MOLECULE
ZINC48706436
   27    29     0     0     0
SMALL
USER_CHARGES

@<TRIPOS>ATOM
      1 C1         -0.0169    1.3965    0.0097 C.ar      1 <0>         0.0071
      2 C2          1.1916    2.0687    0.0018 C.ar      1 <0>        -0.1563
      3 C3          2.3710    1.3425   -0.0134 C.ar      1 <0>         0.2015
      4 N1          2.3580    0.0219   -0.0208 N.ar      1 <0>        -0.4763
      5 C4          1.2330   -0.6620   -0.0137 C.ar      1 <0>         0.1593
      6 C5          0.0021   -0.0041    0.0020 C.ar      1 <0>        -0.1878
      7 C6         -1.2599   -0.7722    0.0104 C.2       1 <0>         0.5654
      8 O1         -2.3265   -0.1889    0.0241 O.2       1 <0>        -0.4521
      9 N2         -1.2287   -2.1196    0.0029 N.am      1 <0>        -0.6077
     10 C7         -2.4157   -2.8421    0.0108 C.2       1 <0>         0.2830
     11 N3         -3.6714   -2.4170    0.0197 N.2       1 <0>        -0.2705
     12 N4         -4.6467   -3.2168    0.0261 N.2       1 <0>        -0.2484
     13 C8         -4.4736   -4.5331    0.0243 C.2       1 <0>         0.1204
     14 S1         -2.6850   -4.6121    0.0040 S.3       1 <0>         0.0064
     15 C9         -5.4727   -5.6226    0.0308 C.2       1 <0>        -0.0419
     16 C10        -6.8369   -5.3397    0.0345 C.2       1 <0>        -0.1301
     17 C11        -7.7191   -6.3634    0.0404 C.2       1 <0>        -0.1648
     18 S2         -6.6464   -7.7896    0.0410 S.3       1 <0>         0.0919
     19 C12        -5.0798   -6.9343    0.0275 C.2       1 <0>        -0.1509
     20 Cl1         3.8907    2.1817   -0.0234 Cl        1 <0>        -0.0097
     21 H1         -0.9515    1.9376    0.0260 H         1 <0>         0.1647
     22 H2          1.2155    3.1484    0.0070 H         1 <0>         0.1609
     23 H3          1.2628   -1.7416   -0.0205 H         1 <0>         0.1684
     24 H4         -0.3777   -2.5850   -0.0081 H         1 <0>         0.4288
     25 H5         -7.1843   -4.3172    0.0331 H         1 <0>         0.1500
     26 H6         -8.7985   -6.3275    0.0443 H         1 <0>         0.1961
     27 H7         -4.0809   -7.3449    0.0204 H         1 <0>         0.1925
@<TRIPOS>BOND
     1    1    6 ar
     2    1    2 ar
     3    1   21 1
     4    2    3 ar
     5    2   22 1
     6    3    4 ar
     7    3   20 1
     8    4    5 ar
     9    5    6 ar
    10    5   23 1
    11    6    7 1
    12    7    8 2
    13    7    9 am
    14    9   10 1
    15    9   24 1
    16   10   14 1
    17   10   11 2
    18   11   12 1
    19   12   13 2
    20   13   14 1
    21   13   15 1
    22   15   19 2
    23   15   16 1
    24   16   17 2
    25   16   25 1
    26   17   18 1
    27   17   26 1
    28   18   19 1
    29   19   27 1
@<TRIPOS>MOLECULE
ZINC58036000
   45    47     0     0     0
SMALL
USER_CHARGES

@<TRIPOS>ATOM
      1 C1         -0.1711    1.3196   -0.4891 C.3       1 <0>        -0.1483
      2 C2         -0.1367   -0.1896   -0.2401 C.3       1 <0>        -0.0929
      3 C3          0.4150   -0.8983   -1.4793 C.3       1 <0>        -0.1313
      4 C4          0.4156   -2.4113   -1.2394 C.3       1 <0>         0.1273
      5 N1          1.1568   -2.6937   -0.0026 N.am      1 <0>        -0.6208
      6 C5          0.7662   -1.9960    1.2300 C.3       1 <0>         0.1066
      7 C6          0.7617   -0.4876    0.9624 C.3       1 <0>        -0.1313
      8 C7          2.1753   -3.5764    0.0012 C.2       1 <0>         0.7108
      9 O1          2.4302   -4.2149   -1.0017 O.2       1 <0>        -0.5676
     10 N2          2.9112   -3.7514    1.1167 N.am      1 <0>        -0.6777
     11 C8          4.0283   -4.5949    1.0932 C.ar      1 <0>         0.2090
     12 C9          4.6044   -4.9508   -0.1177 C.ar      1 <0>        -0.1755
     13 C10         5.7117   -5.7866   -0.1370 C.ar      1 <0>         0.1949
     14 C11         6.2406   -6.2647    1.0553 C.ar      1 <0>        -0.1700
     15 C12         5.6653   -5.9090    2.2599 C.ar      1 <0>        -0.0539
     16 C13         4.5650   -5.0721    2.2831 C.ar      1 <0>        -0.1021
     17 Cl1         3.8495   -4.6218    3.7994 Cl        1 <0>        -0.0700
     18 N3          6.2951   -6.1480   -1.3569 N.am      1 <0>        -0.5572
     19 C14         5.7505   -5.7932   -2.6727 C.3       1 <0>         0.0943
     20 C15         6.9107   -6.0062   -3.6701 C.3       1 <0>        -0.1318
     21 C16         7.7697   -7.0604   -2.9340 C.3       1 <0>        -0.1530
     22 C17         7.4293   -6.8599   -1.4737 C.2       1 <0>         0.5166
     23 O2          8.0833   -7.2823   -0.5436 O.2       1 <0>        -0.5069
     24 H1          0.8383    1.6775   -0.6919 H         1 <0>         0.0548
     25 H2         -0.8109    1.5321   -1.3456 H         1 <0>         0.0573
     26 H3         -0.5651    1.8245    0.3930 H         1 <0>         0.0565
     27 H4         -1.1461   -0.5472   -0.0368 H         1 <0>         0.0741
     28 H5         -0.2120   -0.6667   -2.3402 H         1 <0>         0.0795
     29 H6          1.4336   -0.5596   -1.6688 H         1 <0>         0.0679
     30 H7         -0.6103   -2.7659   -1.1397 H         1 <0>         0.0701
     31 H8          0.8983   -2.9140   -2.0775 H         1 <0>         0.0966
     32 H9         -0.2310   -2.3167    1.5311 H         1 <0>         0.0776
     33 H10         1.4803   -2.2246    2.0212 H         1 <0>         0.0743
     34 H11         1.7770   -0.1528    0.7499 H         1 <0>         0.0693
     35 H12         0.3814    0.0363    1.8394 H         1 <0>         0.0796
     36 H13         2.6669   -3.2929    1.9358 H         1 <0>         0.4102
     37 H14         4.1915   -4.5783   -1.0435 H         1 <0>         0.1750
     38 H15         7.1023   -6.9156    1.0404 H         1 <0>         0.1638
     39 H16         6.0781   -6.2823    3.1854 H         1 <0>         0.1426
     40 H17         4.9135   -6.4452   -2.9228 H         1 <0>         0.0858
     41 H18         5.4328   -4.7505   -2.6807 H         1 <0>         0.0893
     42 H19         6.5427   -6.3965   -4.6190 H         1 <0>         0.0985
     43 H20         7.4704   -5.0830   -3.8204 H         1 <0>         0.0867
     44 H21         7.5003   -8.0657   -3.2579 H         1 <0>         0.1120
     45 H22         8.8302   -6.8750   -3.1046 H         1 <0>         0.1092
@<TRIPOS>BOND
     1    1    2 1
     2    1   24 1
     3    1   25 1
     4    1   26 1
     5    2    7 1
     6    2    3 1
     7    2   27 1
     8    3    4 1
     9    3   28 1
    10    3   29 1
    11    4    5 1
    12    4   30 1
    13    4   31 1
    14    5    6 1
    15    5    8 am
    16    6    7 1
    17    6   32 1
    18    6   33 1
    19    7   34 1
    20    7   35 1
    21    8    9 2
    22    8   10 am
    23   10   11 1
    24   10   36 1
    25   11   16 ar
    26   11   12 ar
    27   12   13 ar
    28   12   37 1
    29   13   14 ar
    30   13   18 1
    31   14   15 ar
    32   14   38 1
    33   15   16 ar
    34   15   39 1
    35   16   17 1
    36   18   22 am
    37   18   19 1
    38   19   20 1
    39   19   40 1
    40   19   41 1
    41   20   21 1
    42   20   42 1
    43   20   43 1
    44   21   22 1
    45   21   44 1
    46   21   45 1
    47   22   23 2
@<TRIPOS>MOLECULE
ZINC65923665
   40    42     0     0     0
SMALL
USER_CHARGES

@<TRIPOS>ATOM
      1 C1         -0.0187    1.5258    0.0104 C.3       1 <0>        -0.1602
      2 C2          0.0021   -0.0041    0.0020 C.3       1 <0>         0.1843
      3 C3          0.7421   -0.5109    1.2415 C.3       1 <0>        -0.1601
      4 C4         -1.4333   -0.5336    0.0129 C.3       1 <0>        -0.1460
      5 N1          0.6878   -0.4765   -1.2033 N.pl3     1 <0>        -0.3570
      6 C5          2.0287   -0.4607   -1.4182 C.2       1 <0>         0.0245
      7 C6          2.2523   -0.9839   -2.6507 C.2       1 <0>        -0.0054
      8 C7          1.0100   -1.3288   -3.2029 C.2       1 <0>         0.0494
      9 N2          0.0770   -1.0302   -2.3357 N.2       1 <0>        -0.2777
     10 N3          3.5076   -1.1503   -3.2654 N.am      1 <0>        -0.6372
     11 C8          3.5880   -1.6861   -4.4995 C.2       1 <0>         0.4972
     12 O1          2.5785   -2.0249   -5.0805 O.2       1 <0>        -0.5026
     13 C9          4.9319   -1.8643   -5.1576 C.3       1 <0>         0.0683
     14 C10         5.7422   -2.9798   -4.4559 C.3       1 <0>        -0.0966
     15 C11         5.3820   -4.1975   -5.2847 C.ar      1 <0>        -0.1665
     16 C12         5.5283   -5.5479   -5.0556 C.ar      1 <0>        -0.0579
     17 C13         5.0947   -6.4608   -6.0019 C.ar      1 <0>        -0.0626
     18 C14         4.5156   -6.0105   -7.1753 C.ar      1 <0>        -0.0716
     19 C15         4.3718   -4.6584   -7.4072 C.ar      1 <0>        -0.1166
     20 C16         4.8087   -3.7339   -6.4615 C.ar      1 <0>         0.1169
     21 O2          4.7813   -2.3729   -6.4938 O.3       1 <0>        -0.2666
     22 Cl1         5.2775   -8.1636   -5.7179 Cl        1 <0>        -0.0624
     23 H1          1.0039    1.9031    0.0027 H         1 <0>         0.0628
     24 H2         -0.5459    1.8868   -0.8726 H         1 <0>         0.0663
     25 H3         -0.5289    1.8773    0.9072 H         1 <0>         0.0797
     26 H4          0.2319   -0.1594    2.1383 H         1 <0>         0.0828
     27 H5          0.7568   -1.6008    1.2356 H         1 <0>         0.0669
     28 H6          1.7647   -0.1336    1.2338 H         1 <0>         0.0647
     29 H7         -1.9605   -0.1726   -0.8702 H         1 <0>         0.0726
     30 H8         -1.4185   -1.6235    0.0069 H         1 <0>         0.0658
     31 H9         -1.9435   -0.1821    0.9097 H         1 <0>         0.0744
     32 H10         2.7805   -0.0974   -0.7332 H         1 <0>         0.1739
     33 H11         0.8510   -1.7690   -4.1762 H         1 <0>         0.2030
     34 H12         4.3149   -0.8794   -2.8008 H         1 <0>         0.4105
     35 H13         5.4856   -0.9254   -5.1619 H         1 <0>         0.1487
     36 H14         6.8117   -2.7758   -4.5078 H         1 <0>         0.1114
     37 H15         5.4204   -3.1033   -3.4218 H         1 <0>         0.0997
     38 H16         5.9812   -5.8944   -4.1385 H         1 <0>         0.1370
     39 H17         4.1747   -6.7214   -7.9135 H         1 <0>         0.1446
     40 H18         3.9191   -4.3153   -8.3257 H         1 <0>         0.1414
@<TRIPOS>BOND
     1    1    2 1
     2    1   23 1
     3    1   24 1
     4    1   25 1
     5    2    3 1
     6    2    4 1
     7    2    5 1
     8    3   26 1
     9    3   27 1
    10    3   28 1
    11    4   29 1
    12    4   30 1
    13    4   31 1
    14    5    9 1
    15    5    6 1
    16    6    7 2
    17    6   32 1
    18    7    8 1
    19    7   10 1
    20    8    9 2
    21    8   33 1
    22   10   11 am
    23   10   34 1
    24   11   12 2
    25   11   13 1
    26   13   21 1
    27   13   14 1
    28   13   35 1
    29   14   15 1
    30   14   36 1
    31   14   37 1
    32   15   20 ar
    33   15   16 ar
    34   16   17 ar
    35   16   38 1
    36   17   18 ar
    37   17   22 1
    38   18   19 ar
    39   18   39 1
    40   19   20 ar
    41   19   40 1
    42   20   21 1
@<TRIPOS>MOLECULE
ZINC04717587
   29    30     0     0     0
SMALL
USER_CHARGES
(4R,4aS,7aS)-1-methyl-2,3,4,4a,5,6,7,7a-octahydrocyclopenta[b]pyridin-4-ol
@<TRIPOS>ATOM
      1 C1          2.9857   -0.5404    2.2782 C.3       1 <0>        -0.0423
      2 C2          0.8314   -0.5529    1.1592 C.3       1 <0>         0.0038
      3 C3          0.0021   -0.0041    0.0020 C.3       1 <0>        -0.1809
      4 C4         -0.0188    1.5345    0.0105 C.3       1 <0>         0.1013
      5 H1         -0.5344    1.9046   -0.8757 H         1 <0>         0.0889
      6 C5          1.4276    1.9956   -0.0009 C.3       1 <0>        -0.1013
      7 H2          1.9428    1.5786   -0.8662 H         1 <0>         0.1037
      8 C6          2.0799    1.4700    1.3069 C.3       1 <0>         0.0102
      9 H3          1.4608    1.7258    2.1668 H         1 <0>         0.1520
     10 C7          3.3954    2.2537    1.3506 C.3       1 <0>        -0.1308
     11 C8          2.9675    3.6778    0.9024 C.3       1 <0>        -0.1215
     12 C9          1.6712    3.5034    0.0727 C.3       1 <0>        -0.1172
     13 O1         -0.6724    2.0072    1.1901 O.3       1 <0>        -0.5603
     14 H4          3.0082   -1.6265    2.1886 H         1 <0>         0.1225
     15 H5          4.0024   -0.1506    2.2284 H         1 <0>         0.1229
     16 H6          2.5368   -0.2638    3.2322 H         1 <0>         0.1215
     17 H7          0.3305   -0.3177    2.0983 H         1 <0>         0.1296
     18 H8          0.9073   -1.6357    1.0599 H         1 <0>         0.1299
     19 H9         -1.0192   -0.3754    0.0871 H         1 <0>         0.1153
     20 H10         0.4294   -0.3501   -0.9391 H         1 <0>         0.0970
     21 H11         3.7992    2.2731    2.3628 H         1 <0>         0.0938
     22 H12         4.1202    1.8294    0.6558 H         1 <0>         0.0864
     23 H13         2.7722    4.3016    1.7747 H         1 <0>         0.0822
     24 H14         3.7476    4.1268    0.2878 H         1 <0>         0.0849
     25 H15         0.8334    3.9868    0.5751 H         1 <0>         0.0880
     26 H16         1.8033    3.9201   -0.9259 H         1 <0>         0.0848
     27 H17        -1.5897    1.7134    1.2760 H         1 <0>         0.3944
     28 N1          2.1898    0.0265    1.1637 N.4       1 <0>        -0.3824
     29 H18         2.6554   -0.1922    0.2751 H         1 <0>         0.4237
@<TRIPOS>BOND
     1    1   14 1
     2    1   15 1
     3    1   16 1
     4    1   28 1
     5    2    3 1
     6    2   17 1
     7    2   18 1
     8    2   28 1
     9    3    4 1
    10    3   19 1
    11    3   20 1
    12    4    5 1
    13    4    6 1
    14    4   13 1
    15    6    7 1
    16    6   12 1
    17    6    8 1
    18    8    9 1
    19    8   10 1
    20    8   28 1
    21   10   11 1
    22   10   21 1
    23   10   22 1
    24   11   12 1
    25   11   23 1
    26   11   24 1
    27   12   25 1
    28   12   26 1
    29   13   27 1
    30   28   29 1
@<TRIPOS>MOLECULE
ZINC39059673
   29    30     0     0     0
SMALL
USER_CHARGES

@<TRIPOS>ATOM
      1 C1         -0.0187    1.5255    0.0104 C.3       1 <0>        -0.1381
      2 C2          1.4263    2.0354   -0.0006 C.3       1 <0>        -0.1464
      3 C3          2.1586    1.4687    1.2153 C.3       1 <0>        -0.0070
      4 N1          2.1687   -0.0008    1.1615 N.4       1 <0>        -0.3804
      5 C4          2.9351   -0.4927    2.3160 C.3       1 <0>        -0.0033
      6 C5          3.0313   -2.0175    2.2732 C.3       1 <0>        -0.1831
      7 C6          1.6168   -2.6041    2.3261 C.3       1 <0>         0.0969
      8 H1          1.1376   -2.3194    3.2628 H         1 <0>         0.0730
      9 C7          0.8125   -2.0498    1.1489 C.3       1 <0>        -0.1392
     10 C8          0.7977   -0.5186    1.2063 C.3       1 <0>         0.0365
     11 H2          0.3160   -0.1937    2.1285 H         1 <0>         0.1373
     12 C9          0.0021   -0.0041    0.0020 C.3       1 <0>        -0.1403
     13 O1          1.6848   -4.0287    2.2359 O.3       1 <0>        -0.5528
     14 H3         -0.5246    1.8794    0.9087 H         1 <0>         0.0824
     15 H4         -0.5416    1.8890   -0.8741 H         1 <0>         0.0965
     16 H5          1.9232    1.7053   -0.9129 H         1 <0>         0.0882
     17 H6          1.4297    3.1244    0.0458 H         1 <0>         0.1134
     18 H7          3.1845    1.8369    1.2232 H         1 <0>         0.1310
     19 H8          1.6535    1.7934    2.1250 H         1 <0>         0.1280
     20 H9          3.9381   -0.0666    2.2920 H         1 <0>         0.1343
     21 H10         2.4373   -0.1879    3.2365 H         1 <0>         0.1293
     22 H11         3.5207   -2.3268    1.3496 H         1 <0>         0.0967
     23 H12         3.6057   -2.3714    3.1293 H         1 <0>         0.1152
     24 H13         1.2694   -2.3730    0.2135 H         1 <0>         0.0958
     25 H14        -0.2099   -2.4243    1.2001 H         1 <0>         0.1182
     26 H15        -1.0194   -0.3807    0.0549 H         1 <0>         0.1126
     27 H16         0.4696   -0.3551   -0.9179 H         1 <0>         0.0891
     28 H17         2.1914   -4.4440    2.9472 H         1 <0>         0.3945
     29 H18         2.6146   -0.3030    0.3083 H         1 <0>         0.4218
@<TRIPOS>BOND
     1    1   12 1
     2    1    2 1
     3    1   14 1
     4    1   15 1
     5    2    3 1
     6    2   16 1
     7    2   17 1
     8    3    4 1
     9    3   18 1
    10    3   19 1
    11    4   10 1
    12    4    5 1
    13    4   29 1
    14    5    6 1
    15    5   20 1
    16    5   21 1
    17    6    7 1
    18    6   22 1
    19    6   23 1
    20    7    8 1
    21    7    9 1
    22    7   13 1
    23    9   10 1
    24    9   24 1
    25    9   25 1
    26   10   11 1
    27   10   12 1
    28   12   26 1
    29   12   27 1
    30   13   28 1
@<TRIPOS>MOLECULE
ZINC50103500
   25    25     0     0     0
SMALL
USER_CHARGES

@<TRIPOS>ATOM
      1 C1         -0.6596    1.4504    0.3836 C.3       1 <0>        -0.1430
      2 C2          0.6700    2.2093    0.3461 C.3       1 <0>        -0.1753
      3 C3          1.5866    1.6682    1.4471 C.3       1 <0>         0.0945
      4 H1          1.1357    1.8569    2.4214 H         1 <0>         0.0775
      5 C4          1.7730    0.1618    1.2535 C.3       1 <0>        -0.0343
      6 N1          0.4697   -0.5095    1.3260 N.4       1 <0>        -0.3808
      7 C5         -0.3899   -0.0480    0.2294 C.3       1 <0>        -0.0110
      8 C6          0.6620   -1.9618    1.2175 C.3       1 <0>        -0.0558
      9 C7          1.3938   -2.4736    2.4599 C.3       1 <0>         0.2457
     10 F1          2.6947   -1.9594    2.4797 F         1 <0>        -0.1801
     11 F2          0.7105   -2.0580    3.6078 F         1 <0>        -0.1875
     12 O1          2.8560    2.3203    1.3745 O.3       1 <0>        -0.5486
     13 H2         -1.1571    1.6345    1.3358 H         1 <0>         0.0913
     14 H3         -1.2965    1.7914   -0.4326 H         1 <0>         0.1203
     15 H4          1.1437    2.0669   -0.6252 H         1 <0>         0.0921
     16 H5          0.4884    3.2712    0.5121 H         1 <0>         0.0988
     17 H6          2.2242   -0.0257    0.2792 H         1 <0>         0.1401
     18 H7          2.4253   -0.2266    2.0357 H         1 <0>         0.1581
     19 H8         -1.3345   -0.5913    0.2555 H         1 <0>         0.1376
     20 H9          0.1073   -0.2310   -0.7232 H         1 <0>         0.1344
     21 H10        -0.3085   -2.4519    1.1398 H         1 <0>         0.1669
     22 H11         1.2537   -2.1847    0.3297 H         1 <0>         0.1642
     23 H12         1.4338   -3.5625    2.4352 H         1 <0>         0.1620
     24 H13         2.8123    3.2799    1.4860 H         1 <0>         0.4051
     25 H14         0.0309   -0.2953    2.2090 H         1 <0>         0.4278
@<TRIPOS>BOND
     1    1    7 1
     2    1    2 1
     3    1   13 1
     4    1   14 1
     5    2    3 1
     6    2   15 1
     7    2   16 1
     8    3    4 1
     9    3    5 1
    10    3   12 1
    11    5    6 1
    12    5   17 1
    13    5   18 1
    14    6    7 1
    15    6    8 1
    16    6   25 1
    17    7   19 1
    18    7   20 1
    19    8    9 1
    20    8   21 1
    21    8   22 1
    22    9   10 1
    23    9   11 1
    24    9   23 1
    25   12   24 1
@<TRIPOS>MOLECULE
ZINC53204336
   29    29     0     0     0
SMALL
USER_CHARGES

@<TRIPOS>ATOM
      1 C1         -0.0369    1.3936   -1.3516 C.3       1 <0>        -0.0488
      2 N1         -0.0071   -0.0544   -1.1061 N.4       1 <0>        -0.5060
      3 C2         -1.3650   -0.5283   -0.8067 C.3       1 <0>         0.0252
      4 H1         -2.0378   -0.2384   -1.6137 H         1 <0>         0.1517
      5 C3         -1.8453    0.0934    0.5076 C.3       1 <0>        -0.1439
      6 C4         -3.2362   -0.4519    0.8428 C.3       1 <0>        -0.1128
      7 C5         -3.1727   -1.9784    0.9308 C.3       1 <0>         0.0223
      8 N2         -2.7088   -2.5250   -0.3507 N.3       1 <0>        -0.5263
      9 C6         -1.3559   -2.0527   -0.6718 C.3       1 <0>         0.0364
     10 C7         -2.7673   -3.9929   -0.3491 C.3       1 <0>         0.0090
     11 C8         -4.2167   -4.4457   -0.5360 C.3       1 <0>         0.4603
     12 F1         -4.7470   -3.8496   -1.6852 F         1 <0>        -0.1704
     13 F2         -4.2566   -5.8376   -0.6719 F         1 <0>        -0.1752
     14 F3         -4.9719   -4.0641    0.5781 F         1 <0>        -0.1799
     15 H2          0.9706    1.7453   -1.5737 H         1 <0>         0.1290
     16 H3         -0.6905    1.6053   -2.1979 H         1 <0>         0.1259
     17 H4         -0.4130    1.9048   -0.4653 H         1 <0>         0.1250
     18 H5          0.3410   -0.5275   -1.9265 H         1 <0>         0.4318
     19 H6         -1.1508   -0.1636    1.3074 H         1 <0>         0.0861
     20 H7         -1.8948    1.1771    0.4012 H         1 <0>         0.0948
     21 H8         -3.5657   -0.0456    1.7991 H         1 <0>         0.0967
     22 H9         -3.9389   -0.1614    0.0618 H         1 <0>         0.0878
     23 H10        -2.4803   -2.2681    1.7212 H         1 <0>         0.0536
     24 H11        -4.1646   -2.3708    1.1553 H         1 <0>         0.1104
     25 H12        -1.0283   -2.4985   -1.6110 H         1 <0>         0.1040
     26 H13        -0.6718   -2.3427    0.1258 H         1 <0>         0.0643
     27 H14        -2.1571   -4.3817   -1.1643 H         1 <0>         0.1260
     28 H15        -2.3882   -4.3705    0.6006 H         1 <0>         0.0951
     29 H16         0.5979   -0.2503   -0.3227 H         1 <0>         0.4279
@<TRIPOS>BOND
     1    1    2 1
     2    1   15 1
     3    1   16 1
     4    1   17 1
     5    2    3 1
     6    2   18 1
     7    2   29 1
     8    3    4 1
     9    3    9 1
    10    3    5 1
    11    5    6 1
    12    5   19 1
    13    5   20 1
    14    6    7 1
    15    6   21 1
    16    6   22 1
    17    7    8 1
    18    7   23 1
    19    7   24 1
    20    8    9 1
    21    8   10 1
    22    9   25 1
    23    9   26 1
    24   10   11 1
    25   10   27 1
    26   10   28 1
    27   11   12 1
    28   11   13 1
    29   11   14 1
@<TRIPOS>MOLECULE
ZINC52140575
   30    30     0     0     0
SMALL
USER_CHARGES

@<TRIPOS>ATOM
      1 C1         -0.0187    1.5258    0.0104 C.3       1 <0>        -0.1468
      2 C2          0.0021   -0.0041    0.0020 C.3       1 <0>         0.1132
      3 H1         -1.0205   -0.3814    0.0098 H         1 <0>         0.0954
      4 C3          0.7309   -0.5033    1.2229 C.2       1 <0>        -0.2120
      5 C4          0.1456   -1.3476    2.0356 C.2       1 <0>        -0.1560
      6 N1          0.6897   -0.4778   -1.2066 N.3       1 <0>        -0.5270
      7 C5          2.0902   -0.1313   -1.1742 C.3       1 <0>         0.0245
      8 C6          2.6477    0.2521   -2.5597 C.3       1 <0>        -0.1364
      9 C7          2.1240   -0.6764   -3.6726 C.3       1 <0>        -0.0122
     10 N2          2.0923   -2.0567   -3.2516 N.4       1 <0>        -0.4997
     11 C8          0.7331   -2.3550   -2.7599 C.3       1 <0>         0.0038
     12 C9          0.5229   -1.9431   -1.3736 C.3       1 <0>         0.0126
     13 H2          1.0039    1.9031    0.0027 H         1 <0>         0.0589
     14 H3         -0.5459    1.8868   -0.8726 H         1 <0>         0.0698
     15 H4         -0.5289    1.8773    0.9072 H         1 <0>         0.0711
     16 H5          1.7359   -0.1650    1.4278 H         1 <0>         0.1112
     17 H6          0.6679   -1.7054    2.9106 H         1 <0>         0.1041
     18 H7         -0.8594   -1.6859    1.8307 H         1 <0>         0.1010
     19 H8          2.2279    0.7103   -0.4954 H         1 <0>         0.1000
     20 H9          2.6536   -0.9828   -0.7926 H         1 <0>         0.0454
     21 H10         2.3559    1.2773   -2.7874 H         1 <0>         0.1093
     22 H11         3.7357    0.1932   -2.5322 H         1 <0>         0.0913
     23 H12         1.1161   -0.3663   -3.9483 H         1 <0>         0.1338
     24 H13         2.7723   -0.5862   -4.5442 H         1 <0>         0.1267
     25 H14         2.3111   -2.6564   -4.0330 H         1 <0>         0.4340
     26 H15         0.0104   -1.8395   -3.3923 H         1 <0>         0.1379
     27 H16         0.5601   -3.4285   -2.8368 H         1 <0>         0.1345
     28 H17         1.2423   -2.4578   -0.7366 H         1 <0>         0.0650
     29 H18        -0.4851   -2.2235   -1.0681 H         1 <0>         0.1221
     30 H19         2.7621   -2.2027   -2.5113 H         1 <0>         0.4244
@<TRIPOS>BOND
     1    1    2 1
     2    1   13 1
     3    1   14 1
     4    1   15 1
     5    2    3 1
     6    2    4 1
     7    2    6 1
     8    4    5 2
     9    4   16 1
    10    5   17 1
    11    5   18 1
    12    6   12 1
    13    6    7 1
    14    7    8 1
    15    7   19 1
    16    7   20 1
    17    8    9 1
    18    8   21 1
    19    8   22 1
    20    9   10 1
    21    9   23 1
    22    9   24 1
    23   10   11 1
    24   10   25 1
    25   10   30 1
    26   11   12 1
    27   11   26 1
    28   11   27 1
    29   12   28 1
    30   12   29 1
@<TRIPOS>MOLECULE
ZINC03846313
   30    31     0     0     0
SMALL
USER_CHARGES
(1S,4R,5R)-5,8,8-trimethyl-2-oxo-3-oxabicyclo[3.2.1]octane-4-carboxylic acid
@<TRIPOS>ATOM
      1 C1         -0.9407    1.6272    0.4320 C.3       1 <0>        -0.1284
      2 C2         -0.4774    0.1831    0.2302 C.3       1 <0>        -0.0494
      3 C3          0.3335    0.0334   -1.0894 C.3       1 <0>        -0.1394
      4 H1          1.1180    0.7805   -1.2100 H         1 <0>         0.1127
      5 C4         -0.7653    0.0985   -2.1820 C.3       1 <0>        -0.1112
      6 C5         -2.0483   -0.4395   -1.5216 C.3       1 <0>        -0.1168
      7 C6         -1.6808   -0.7562   -0.0547 C.3       1 <0>        -0.0697
      8 C7         -1.1500   -2.1974    0.0190 C.3       1 <0>         0.0646
      9 H2         -1.9661   -2.8953   -0.1685 H         1 <0>         0.1129
     10 O1         -0.1157   -2.3707   -1.0099 O.3       1 <0>        -0.3671
     11 C8          0.8308   -1.4094   -1.0852 C.2       1 <0>         0.5049
     12 O2          2.0073   -1.6776   -1.1462 O.2       1 <0>        -0.4676
     13 C9         -0.5756   -2.4520    1.3887 C.2       1 <0>         0.4714
     14 O3          0.5586   -2.8527    1.5033 O.co2     1 <0>        -0.6146
     15 C10        -2.8487   -0.5174    0.9044 C.3       1 <0>        -0.1365
     16 C11         0.3315   -0.3062    1.4332 C.3       1 <0>        -0.2267
     17 H3         -0.0722    2.2718    0.5677 H         1 <0>         0.0514
     18 H4         -1.5027    1.9541   -0.4429 H         1 <0>         0.0531
     19 H5         -1.5772    1.6846    1.3150 H         1 <0>         0.0634
     20 H6         -0.4888   -0.5269   -3.0308 H         1 <0>         0.0659
     21 H7         -0.9131    1.1284   -2.5068 H         1 <0>         0.0722
     22 H8         -2.3788   -1.3459   -2.0289 H         1 <0>         0.0679
     23 H9         -2.8333    0.3159   -1.5562 H         1 <0>         0.0690
     24 H10        -3.1950    0.5114    0.8061 H         1 <0>         0.0469
     25 H11        -3.6634   -1.1997    0.6617 H         1 <0>         0.0480
     26 H12        -2.5199   -0.6938    1.9285 H         1 <0>         0.1056
     27 H13        -0.3486   -0.6189    2.2254 H         1 <0>         0.1201
     28 H14         0.9532   -1.1500    1.1340 H         1 <0>         0.1023
     29 H15         0.9663    0.5018    1.7971 H         1 <0>         0.0364
     30 O4         -1.3238   -2.2337    2.4815 O.co2     1 <0>        -0.7413
@<TRIPOS>BOND
     1    1    2 1
     2    1   17 1
     3    1   18 1
     4    1   19 1
     5    2    7 1
     6    2    3 1
     7    2   16 1
     8    3    4 1
     9    3   11 1
    10    3    5 1
    11    5    6 1
    12    5   20 1
    13    5   21 1
    14    6    7 1
    15    6   22 1
    16    6   23 1
    17    7    8 1
    18    7   15 1
    19    8    9 1
    20    8   10 1
    21    8   13 1
    22   10   11 1
    23   11   12 2
    24   13   14 2
    25   13   30 1
    26   15   24 1
    27   15   25 1
    28   15   26 1
    29   16   27 1
    30   16   28 1
    31   16   29 1
@<TRIPOS>MOLECULE
ZINC04877493
   23    23     0     0     0
SMALL
USER_CHARGES
4,4-dimethyl-2,6-dioxo-cyclohexanecarbaldehyde
@<TRIPOS>ATOM
      1 C1          0.8939   -2.0142   -1.1850 C.3       1 <0>        -0.1376
      2 C2          0.8325   -0.4855   -1.1909 C.3       1 <0>        -0.0471
      3 C3          0.0021   -0.0041    0.0020 C.3       1 <0>        -0.1481
      4 C4         -0.0184    1.5080    0.0103 C.2       1 <0>         0.3724
      5 O1         -1.0624    2.1148    0.0186 O.3       1 <0>        -0.5556
      6 C5          1.3083    2.2400    0.0016 C.2       1 <0>        -0.5798
      7 C6          2.1766    1.5921   -1.0579 C.2       1 <0>         0.3717
      8 O2          2.7913    2.2626   -1.8522 O.2       1 <0>        -0.5558
      9 C7          2.2511    0.0821   -1.0925 C.3       1 <0>        -0.1482
     10 C8          1.0895    3.6929   -0.3336 C.2       1 <0>         0.4230
     11 O3          1.4180    4.5497    0.4514 O.2       1 <0>        -0.5011
     12 C9          0.1817   -0.0075   -2.4906 C.3       1 <0>        -0.1448
     13 H1         -0.1251   -2.4223   -1.2557 H         1 <0>         0.0530
     14 H2          1.3630   -2.3587   -0.2516 H         1 <0>         0.0569
     15 H3          1.4880   -2.3606   -2.0435 H         1 <0>         0.0530
     16 H4         -1.0248   -0.3883   -0.0872 H         1 <0>         0.0656
     17 H5          0.4521   -0.3739    0.9351 H         1 <0>         0.0867
     18 H6          2.7306   -0.2865   -0.1737 H         1 <0>         0.0867
     19 H7          2.8365   -0.2402   -1.9663 H         1 <0>         0.0656
     20 H8          0.6306    3.9729   -1.2933 H         1 <0>         0.0223
     21 H9          0.1371    1.0916   -2.4957 H         1 <0>         0.0544
     22 H10        -0.8371   -0.4161   -2.5624 H         1 <0>         0.0533
     23 H11         0.7772   -0.3543   -3.3480 H         1 <0>         0.0533
@<TRIPOS>BOND
     1    1    2 1
     2    1   13 1
     3    1   14 1
     4    1   15 1
     5    2    9 1
     6    2    3 1
     7    2   12 1
     8    3    4 1
     9    3   16 1
    10    3   17 1
    11    4    5 1
    12    4    6 2
    13    6    7 1
    14    6   10 1
    15    7    8 2
    16    7    9 1
    17    9   18 1
    18    9   19 1
    19   10   11 2
    20   10   20 1
    21   12   21 1
    22   12   22 1
    23   12   23 1
@<TRIPOS>MOLECULE
ZINC37913549
   28    28     0     0     0
SMALL
USER_CHARGES

@<TRIPOS>ATOM
      1 C1         -1.4736   -0.3869    0.1042 C.3       1 <0>        -0.1450
      2 C2          0.0042   -0.0049   -0.0015 C.3       1 <0>        -0.1369
      3 C3          0.7259   -0.3967    1.2895 C.3       1 <0>         0.1373
      4 H1          0.2092    0.0328    2.1478 H         1 <0>         0.0719
      5 C4          0.7715   -1.9338    1.4195 C.3       1 <0>        -0.1262
      6 C5          2.1812   -2.1905    2.0146 C.3       1 <0>        -0.1337
      7 C6          3.0171   -1.0853    1.3220 C.3       1 <0>         0.0991
      8 N1          2.1152    0.0827    1.2509 N.am      1 <0>        -0.6201
      9 C7          2.4992    1.3717    1.1636 C.2       1 <0>         0.5661
     10 O1          1.6681    2.2572    1.2027 O.2       1 <0>        -0.5492
     11 C8          3.9320    1.7082    1.0202 C.2       1 <0>        -0.2130
     12 C9          4.3145    2.9923    0.9332 C.2       1 <0>        -0.0954
     13 C10         5.7431    3.3278    0.7902 C.2       1 <0>         0.5048
     14 O2          6.5795    2.4367    0.7508 O.co2     1 <0>        -0.6828
     15 O3          6.0915    4.4973    0.7110 O.co2     1 <0>        -0.6828
     16 H2         -1.9031    0.0668    0.9973 H         1 <0>         0.0542
     17 H3         -2.0054   -0.0285   -0.7771 H         1 <0>         0.0540
     18 H4         -1.5649   -1.4712    0.1677 H         1 <0>         0.0529
     19 H5          0.4557   -0.5294   -0.8437 H         1 <0>         0.0617
     20 H6          0.0914    1.0708   -0.1544 H         1 <0>         0.0756
     21 H7         -0.0041   -2.2865    2.0993 H         1 <0>         0.0782
     22 H8          0.6735   -2.4066    0.4423 H         1 <0>         0.0765
     23 H9          2.1787   -2.0581    3.0965 H         1 <0>         0.0751
     24 H10         2.5446   -3.1821    1.7447 H         1 <0>         0.0829
     25 H11         3.8983   -0.8468    1.9176 H         1 <0>         0.0822
     26 H12         3.3093   -1.4020    0.3208 H         1 <0>         0.0690
     27 H13         4.6707    0.9212    0.9854 H         1 <0>         0.1317
     28 H14         3.5758    3.7793    0.9680 H         1 <0>         0.1120
@<TRIPOS>BOND
     1    1    2 1
     2    1   16 1
     3    1   17 1
     4    1   18 1
     5    2    3 1
     6    2   19 1
     7    2   20 1
     8    3    4 1
     9    3    8 1
    10    3    5 1
    11    5    6 1
    12    5   21 1
    13    5   22 1
    14    6    7 1
    15    6   23 1
    16    6   24 1
    17    7    8 1
    18    7   25 1
    19    7   26 1
    20    8    9 am
    21    9   10 2
    22    9   11 1
    23   11   12 2
    24   11   27 1
    25   12   13 1
    26   12   28 1
    27   13   14 2
    28   13   15 1
@<TRIPOS>MOLECULE
ZINC40487564
   20    20     0     0     0
SMALL
USER_CHARGES

@<TRIPOS>ATOM
      1 C1         -0.0225    1.8097    0.0120 C.3       1 <0>        -0.1400
      2 S1          0.0021   -0.0041    0.0020 S.3       1 <0>        -0.1242
      3 C2         -1.7016   -0.4536    0.0159 C.ar      1 <0>         0.0423
      4 C3         -2.6970    0.5192    0.0248 C.ar      1 <0>        -0.2896
      5 C4         -4.0273    0.1307    0.0356 C.ar      1 <0>         0.4584
      6 O1         -4.9968    1.0781    0.0439 O.3       1 <0>        -0.6796
      7 N1         -4.3694   -1.1498    0.0377 N.ar      1 <0>        -0.5767
      8 C5         -3.4645   -2.1167    0.0295 C.ar      1 <0>         0.2465
      9 C6         -2.0929   -1.8091    0.0123 C.ar      1 <0>        -0.1956
     10 C7         -1.1115   -2.8517   -0.0027 C.1       1 <0>         0.2901
     11 N2         -0.3329   -3.6789   -0.0146 N.1       1 <0>        -0.4629
     12 S2         -3.9834   -3.8006    0.0327 S.3       1 <0>        -0.1079
     13 C8         -5.7946   -3.7016    0.0479 C.3       1 <0>        -0.1224
     14 H1          1.0001    2.1870    0.0043 H         1 <0>         0.1032
     15 H2         -0.5497    2.1708   -0.8711 H         1 <0>         0.0847
     16 H3         -0.5327    2.1613    0.9088 H         1 <0>         0.0847
     17 H4         -2.4352    1.5670    0.0237 H         1 <0>         0.1219
     18 H5         -6.2135   -4.7079    0.0507 H         1 <0>         0.0952
     19 H6         -6.1219   -3.1693    0.9410 H         1 <0>         0.0860
     20 H7         -6.1368   -3.1681   -0.8389 H         1 <0>         0.0860
@<TRIPOS>BOND
     1    1    2 1
     2    1   14 1
     3    1   15 1
     4    1   16 1
     5    2    3 1
     6    3    9 ar
     7    3    4 ar
     8    4    5 ar
     9    4   17 1
    10    5    6 1
    11    5    7 ar
    12    7    8 ar
    13    8    9 ar
    14    8   12 1
    15    9   10 1
    16   10   11 3
    17   12   13 1
    18   13   18 1
    19   13   19 1
    20   13   20 1
@<TRIPOS>MOLECULE
ZINC62757858
   33    34     0     0     0
SMALL
USER_CHARGES

@<TRIPOS>ATOM
      1 C1         -0.0184    1.5028    0.0103 C.3       1 <0>        -0.0613
      2 C2          0.0021   -0.0041    0.0020 C.2       1 <0>        -0.2577
      3 C3          0.0086   -0.8207   -1.1335 C.2       1 <0>         0.0064
      4 N1          0.0276   -2.0683   -0.7396 N.2       1 <0>        -0.2070
      5 N2          0.0338   -2.0849    0.6612 N.pl3     1 <0>        -0.3299
      6 C4          0.0233   -0.8060    1.0917 C.2       1 <0>         0.0309
      7 C5          0.0540   -3.2796    1.5088 C.3       1 <0>         0.1862
      8 H1          0.4980   -4.1086    0.9577 H         1 <0>         0.0928
      9 C6          0.8825   -3.0001    2.7644 C.3       1 <0>        -0.1229
     10 C7          0.9036   -4.2478    3.6497 C.3       1 <0>        -0.0826
     11 H2          1.4938   -4.0486    4.5442 H         1 <0>         0.0702
     12 C8         -0.5268   -4.6112    4.0530 C.3       1 <0>        -0.1188
     13 C9         -1.3553   -4.8907    2.7974 C.3       1 <0>        -0.0908
     14 C10        -1.3764   -3.6431    1.9121 C.3       1 <0>        -0.1686
     15 H3         -1.8203   -2.8140    2.4632 H         1 <0>         0.0621
     16 C11        -2.1924   -3.9184    0.6754 C.2       1 <0>         0.4871
     17 O1         -3.1181   -4.7106    0.7197 O.co2     1 <0>        -0.7053
     18 O2         -1.9269   -3.3488   -0.3694 O.co2     1 <0>        -0.6617
     19 C12         1.5267   -5.4115    2.8761 C.3       1 <0>        -0.1552
     20 H4          1.0042    1.8801    0.0026 H         1 <0>         0.0493
     21 H5         -0.5455    1.8639   -0.8728 H         1 <0>         0.0551
     22 H6         -0.5286    1.8543    0.9071 H         1 <0>         0.0498
     23 H7         -0.0006   -0.4803   -2.1584 H         1 <0>         0.1666
     24 H8          0.0283   -0.4808    2.1216 H         1 <0>         0.1546
     25 H9          1.9016   -2.7411    2.4771 H         1 <0>         0.0654
     26 H10         0.4386   -2.1710    3.3155 H         1 <0>         0.0662
     27 H11        -0.5117   -5.5001    4.6836 H         1 <0>         0.0595
     28 H12        -0.9707   -3.7822    4.6041 H         1 <0>         0.0578
     29 H13        -0.9113   -5.7198    2.2463 H         1 <0>         0.0599
     30 H14        -2.3743   -5.1497    3.0847 H         1 <0>         0.0707
     31 H15         2.5458   -5.1525    2.5888 H         1 <0>         0.0513
     32 H16         1.5418   -6.3003    3.5068 H         1 <0>         0.0544
     33 H17         0.9365   -5.6106    1.9816 H         1 <0>         0.0654
@<TRIPOS>BOND
     1    1    2 1
     2    1   20 1
     3    1   21 1
     4    1   22 1
     5    2    6 2
     6    2    3 1
     7    3    4 2
     8    3   23 1
     9    4    5 1
    10    5    6 1
    11    5    7 1
    12    6   24 1
    13    7    8 1
    14    7   14 1
    15    7    9 1
    16    9   10 1
    17    9   25 1
    18    9   26 1
    19   10   11 1
    20   10   12 1
    21   10   19 1
    22   12   13 1
    23   12   27 1
    24   12   28 1
    25   13   14 1
    26   13   29 1
    27   13   30 1
    28   14   15 1
    29   14   16 1
    30   16   17 2
    31   16   18 1
    32   19   31 1
    33   19   32 1
    34   19   33 1
@<TRIPOS>MOLECULE
ZINC21987547
   30    30     0     0     0
SMALL
USER_CHARGES
ethyl (3S)-3-methylpiperidine-3-carboxylate
@<TRIPOS>ATOM
      1 C1         -0.0127    1.0858    0.0080 C.3       1 <0>        -0.1581
      2 C2         -0.7288    1.5792    1.2668 C.3       1 <0>         0.0607
      3 O1         -0.0266    1.0982    2.4431 O.3       1 <0>        -0.3562
      4 C3         -0.5301    1.4455    3.6380 C.2       1 <0>         0.4669
      5 O2         -1.5247    2.1288    3.6989 O.2       1 <0>        -0.4777
      6 C4          0.1451    0.9832    4.9034 C.3       1 <0>        -0.0675
      7 C5         -0.6255    1.5116    6.1164 C.3       1 <0>        -0.1235
      8 C6          0.0312    0.9872    7.3964 C.3       1 <0>        -0.1486
      9 C7          0.0534   -0.5426    7.3637 C.3       1 <0>        -0.0061
     10 N1          0.8030   -0.9975    6.1858 N.4       1 <0>        -0.5330
     11 C8          0.1640   -0.5465    4.9429 C.3       1 <0>         0.0045
     12 C9          1.5801    1.5129    4.9396 C.3       1 <0>        -0.1671
     13 H1         -0.5447    1.4502   -0.8831 H         1 <0>         0.0897
     14 H2          0.0022   -0.0141    0.0019 H         1 <0>         0.0689
     15 H3          1.0193    1.4665    0.0002 H         1 <0>         0.0705
     16 H4         -0.7437    2.6791    1.2729 H         1 <0>         0.0783
     17 H5         -1.7608    1.1985    1.2746 H         1 <0>         0.0774
     18 H6         -0.6039    2.6114    6.1139 H         1 <0>         0.1034
     19 H7         -1.6684    1.1653    6.0676 H         1 <0>         0.0928
     20 H8          1.0607    1.3689    7.4632 H         1 <0>         0.0934
     21 H9         -0.5438    1.3284    8.2699 H         1 <0>         0.1194
     22 H10         0.5384   -0.9218    8.2753 H         1 <0>         0.1379
     23 H11        -0.9773   -0.9232    7.3113 H         1 <0>         0.1300
     24 H12         1.8248   -0.5917    6.2223 H         1 <0>         0.4488
     25 H13        -0.8673   -0.9271    4.9023 H         1 <0>         0.1343
     26 H14         0.7300   -0.9286    4.0806 H         1 <0>         0.1469
     27 H15         2.0724    1.1751    5.8635 H         1 <0>         0.0722
     28 H16         1.5658    2.6125    4.9126 H         1 <0>         0.0915
     29 H17         2.1336    1.1319    4.0687 H         1 <0>         0.0902
     30 H18         0.8450   -2.0967    6.1799 H         1 <0>         0.4601
@<TRIPOS>BOND
     1    1    2 1
     2    1   13 1
     3    1   14 1
     4    1   15 1
     5    2    3 1
     6    2   16 1
     7    2   17 1
     8    3    4 1
     9    4    5 2
    10    4    6 1
    11    6   11 1
    12    6    7 1
    13    6   12 1
    14    7    8 1
    15    7   18 1
    16    7   19 1
    17    8    9 1
    18    8   20 1
    19    8   21 1
    20    9   10 1
    21    9   22 1
    22    9   23 1
    23   10   11 1
    24   10   24 1
    25   10   30 1
    26   11   25 1
    27   11   26 1
    28   12   27 1
    29   12   28 1
    30   12   29 1
@<TRIPOS>MOLECULE
ZINC44179261
   39    40     0     0     0
SMALL
USER_CHARGES

@<TRIPOS>ATOM
      1 C1         -0.0187    1.5258    0.0104 C.3       1 <0>        -0.1602
      2 C2          0.0021   -0.0041    0.0020 C.3       1 <0>        -0.1207
      3 C3          0.7421   -0.5109    1.2415 C.3       1 <0>        -0.1014
      4 C4         -0.0461   -0.1327    2.4989 C.3       1 <0>        -0.1422
      5 C5          0.6576   -0.7108    3.7285 C.3       1 <0>        -0.0091
      6 N1          0.7277   -2.1725    3.6145 N.4       1 <0>        -0.3728
      7 C6          1.5425   -2.5428    2.4511 C.3       1 <0>        -0.0135
      8 C7          0.8729   -2.0351    1.1723 C.3       1 <0>        -0.1419
      9 C8          1.3336   -2.7286    4.8318 C.3       1 <0>        -0.0025
     10 H1          2.3386   -2.3250    4.9555 H         1 <0>         0.1530
     11 C9          1.4052   -4.2535    4.7169 C.3       1 <0>         0.0486
     12 O1          1.9414   -4.7962    5.9252 O.3       1 <0>        -0.3529
     13 C10         1.1573   -4.5195    7.0874 C.3       1 <0>         0.0508
     14 C11         1.0757   -3.0052    7.2976 C.3       1 <0>        -0.1873
     15 C12         0.4785   -2.3541    6.0462 C.3       1 <0>         0.0847
     16 H2          0.4703   -1.2708    6.1663 H         1 <0>         0.0878
     17 O2         -0.8568   -2.8256    5.8544 O.3       1 <0>        -0.5717
     18 H3          1.0039    1.9031    0.0027 H         1 <0>         0.0583
     19 H4         -0.5459    1.8868   -0.8726 H         1 <0>         0.0636
     20 H5         -0.5289    1.8773    0.9072 H         1 <0>         0.0561
     21 H6         -1.0205   -0.3814    0.0098 H         1 <0>         0.0686
     22 H7          0.5123   -0.3556   -0.8948 H         1 <0>         0.0739
     23 H8          1.7342   -0.0614    1.2829 H         1 <0>         0.0895
     24 H9         -0.0956    0.9528    2.5846 H         1 <0>         0.1141
     25 H10        -1.0551   -0.5395    2.4321 H         1 <0>         0.0890
     26 H11         1.6663   -0.3031    3.7945 H         1 <0>         0.1279
     27 H12         0.0991   -0.4431    4.6255 H         1 <0>         0.1283
     28 H13         2.5324   -2.0960    2.5443 H         1 <0>         0.1306
     29 H14         1.6374   -3.6276    2.4050 H         1 <0>         0.1314
     30 H15        -0.1170   -2.4815    1.0779 H         1 <0>         0.0890
     31 H16         1.4803   -2.3095    0.3098 H         1 <0>         0.1142
     32 H17         0.4046   -4.6529    4.5515 H         1 <0>         0.0821
     33 H18         2.0482   -4.5251    3.8797 H         1 <0>         0.1154
     34 H19         0.1534   -4.9224    6.9531 H         1 <0>         0.0704
     35 H20         1.6216   -4.9828    7.9580 H         1 <0>         0.1143
     36 H21         0.4417   -2.7905    8.1578 H         1 <0>         0.1019
     37 H22         2.0754   -2.6074    7.4723 H         1 <0>         0.0950
     38 H23        -1.4546   -2.6228    6.5869 H         1 <0>         0.4089
     39 H24        -0.2033   -2.5453    3.5042 H         1 <0>         0.4286
@<TRIPOS>BOND
     1    1    2 1
     2    1   18 1
     3    1   19 1
     4    1   20 1
     5    2    3 1
     6    2   21 1
     7    2   22 1
     8    3    8 1
     9    3    4 1
    10    3   23 1
    11    4    5 1
    12    4   24 1
    13    4   25 1
    14    5    6 1
    15    5   26 1
    16    5   27 1
    17    6    7 1
    18    6    9 1
    19    6   39 1
    20    7    8 1
    21    7   28 1
    22    7   29 1
    23    8   30 1
    24    8   31 1
    25    9   10 1
    26    9   15 1
    27    9   11 1
    28   11   12 1
    29   11   32 1
    30   11   33 1
    31   12   13 1
    32   13   14 1
    33   13   34 1
    34   13   35 1
    35   14   15 1
    36   14   36 1
    37   14   37 1
    38   15   16 1
    39   15   17 1
    40   17   38 1
@<TRIPOS>MOLECULE
ZINC54291055
   38    39     0     0     0
SMALL
USER_CHARGES

@<TRIPOS>ATOM
      1 C1         -0.0187    1.5258    0.0104 C.3       1 <0>        -0.1642
      2 C2          0.0021   -0.0041    0.0020 C.3       1 <0>         0.1320
      3 H1         -1.0179   -0.3885   -0.0028 H         1 <0>         0.0787
      4 C3          0.7603   -0.5118   -1.2425 C.3       1 <0>        -0.1323
      5 C4          2.1834   -0.7926   -0.6919 C.3       1 <0>        -0.1347
      6 C5          1.8687   -1.3097    0.7340 C.3       1 <0>         0.0946
      7 N1          0.7180   -0.5009    1.1861 N.am      1 <0>        -0.6118
      8 C6          0.3806   -0.2567    2.4679 C.2       1 <0>         0.5288
      9 O1         -0.5892    0.4265    2.7201 O.2       1 <0>        -0.5355
     10 C7          1.2084   -0.8326    3.5878 C.3       1 <0>        -0.1342
     11 C8          0.6140   -0.4074    4.9320 C.3       1 <0>        -0.0945
     12 H2         -0.4357   -0.6980    4.9741 H         1 <0>         0.1040
     13 C9          0.7306    1.1119    5.0851 C.3       1 <0>        -0.1407
     14 C10         0.2050    1.5178    6.4650 C.3       1 <0>        -0.1452
     15 C11         0.9860    0.7647    7.5440 C.3       1 <0>        -0.0087
     16 N2          0.8132   -0.6811    7.3589 N.4       1 <0>        -0.5033
     17 C12         1.3792   -1.0901    6.0678 C.3       1 <0>        -0.0063
     18 H3          1.0039    1.9031    0.0027 H         1 <0>         0.0561
     19 H4         -0.5459    1.8868   -0.8726 H         1 <0>         0.0693
     20 H5         -0.5289    1.8773    0.9072 H         1 <0>         0.0695
     21 H6          0.3068   -1.4268   -1.6237 H         1 <0>         0.0804
     22 H7          0.7904    0.2560   -2.0156 H         1 <0>         0.0892
     23 H8          2.6870   -1.5578   -1.2827 H         1 <0>         0.0903
     24 H9          2.7752    0.1220   -0.6541 H         1 <0>         0.0789
     25 H10         1.6000   -2.3656    0.7039 H         1 <0>         0.0754
     26 H11         2.7240   -1.1537    1.3915 H         1 <0>         0.0771
     27 H12         1.2076   -1.9203    3.5180 H         1 <0>         0.1042
     28 H13         2.2313   -0.4642    3.5100 H         1 <0>         0.1036
     29 H14         1.7752    1.4086    4.9911 H         1 <0>         0.0763
     30 H15         0.1401    1.6025    4.3113 H         1 <0>         0.1127
     31 H16         0.3360    2.5911    6.6031 H         1 <0>         0.1120
     32 H17        -0.8532    1.2671    6.5397 H         1 <0>         0.0891
     33 H18         2.0438    1.0163    7.4686 H         1 <0>         0.1296
     34 H19         0.6144    1.0516    8.5278 H         1 <0>         0.1331
     35 H20         1.2850   -1.1732    8.1028 H         1 <0>         0.4322
     36 H21         1.2977   -2.1718    5.9614 H         1 <0>         0.1338
     37 H22         2.4288   -0.7996    6.0242 H         1 <0>         0.1315
     38 H23        -0.1701   -0.9067    7.3799 H         1 <0>         0.4289
@<TRIPOS>BOND
     1    1    2 1
     2    1   18 1
     3    1   19 1
     4    1   20 1
     5    2    3 1
     6    2    7 1
     7    2    4 1
     8    4    5 1
     9    4   21 1
    10    4   22 1
    11    5    6 1
    12    5   23 1
    13    5   24 1
    14    6    7 1
    15    6   25 1
    16    6   26 1
    17    7    8 am
    18    8    9 2
    19    8   10 1
    20   10   11 1
    21   10   27 1
    22   10   28 1
    23   11   12 1
    24   11   17 1
    25   11   13 1
    26   13   14 1
    27   13   29 1
    28   13   30 1
    29   14   15 1
    30   14   31 1
    31   14   32 1
    32   15   16 1
    33   15   33 1
    34   15   34 1
    35   16   17 1
    36   16   35 1
    37   16   38 1
    38   17   36 1
    39   17   37 1
@<TRIPOS>MOLECULE
ZINC61892836
   34    35     0     0     0
SMALL
USER_CHARGES

@<TRIPOS>ATOM
      1 C1          0.2099    1.6261   -0.0753 C.3       1 <0>        -0.1292
      2 C2          1.7126    1.9677   -0.1451 C.3       1 <0>        -0.1128
      3 C3          2.4123    0.7311    0.4715 C.3       1 <0>        -0.0093
      4 H1          3.4397    0.6514    0.1163 H         1 <0>         0.1498
      5 C4          1.5556   -0.4457   -0.0579 C.3       1 <0>         0.0226
      6 H2          1.8424   -0.6973   -1.0789 H         1 <0>         0.1706
      7 C5          0.1101    0.0916   -0.0199 C.3       1 <0>        -0.1426
      8 N1          1.6947   -1.6174    0.8173 N.4       1 <0>        -0.5076
      9 C6          0.9784   -2.7565    0.2280 C.3       1 <0>         0.0135
     10 C7          0.9605   -3.9095    1.2271 C.3       1 <0>        -0.1435
     11 C8         -0.0176   -4.9910    0.7587 C.3       1 <0>        -0.4494
     12 S1          0.5623   -5.6510   -0.8332 S.o       1 <0>         1.2676
     13 O1          1.8163   -6.2940   -0.6507 O.2       1 <0>        -0.8244
     14 C9          0.7896   -4.1542   -1.8401 C.3       1 <0>        -0.4504
     15 C10         1.6727   -3.1712   -1.0658 C.3       1 <0>        -0.1423
     16 C11         2.3740    0.7891    1.9419 C.1       1 <0>         0.1609
     17 N2          2.3444    0.8340    3.0766 N.1       1 <0>        -0.3650
     18 H3         -0.2308    2.0616    0.8215 H         1 <0>         0.0830
     19 H4         -0.3000    2.0016   -0.9625 H         1 <0>         0.0956
     20 H5          2.0248    2.1059   -1.1802 H         1 <0>         0.1073
     21 H6          1.9286    2.8604    0.4419 H         1 <0>         0.0981
     22 H7         -0.3790   -0.2176    0.9039 H         1 <0>         0.0866
     23 H8         -0.4482   -0.2776   -0.8801 H         1 <0>         0.1077
     24 H9          2.6717   -1.8492    0.9163 H         1 <0>         0.4299
     25 H10        -0.0466   -2.4594    0.0058 H         1 <0>         0.1512
     26 H11         1.9606   -4.3356    1.3060 H         1 <0>         0.0937
     27 H12         0.6488   -3.5378    2.2033 H         1 <0>         0.0951
     28 H13        -0.0556   -5.7935    1.4953 H         1 <0>         0.1306
     29 H14        -1.0101   -4.5576    0.6351 H         1 <0>         0.1316
     30 H15         1.2727   -4.4165   -2.7813 H         1 <0>         0.1312
     31 H16        -0.1796   -3.6966   -2.0390 H         1 <0>         0.1318
     32 H17         1.8544   -2.2881   -1.6782 H         1 <0>         0.0978
     33 H18         2.6239   -3.6481   -0.8293 H         1 <0>         0.0944
     34 H19         1.3052   -1.4079    1.7242 H         1 <0>         0.4262
@<TRIPOS>BOND
     1    1    7 1
     2    1    2 1
     3    1   18 1
     4    1   19 1
     5    2    3 1
     6    2   20 1
     7    2   21 1
     8    3    4 1
     9    3    5 1
    10    3   16 1
    11    5    6 1
    12    5    7 1
    13    5    8 1
    14    7   22 1
    15    7   23 1
    16    8    9 1
    17    8   24 1
    18    8   34 1
    19    9   15 1
    20    9   10 1
    21    9   25 1
    22   10   11 1
    23   10   26 1
    24   10   27 1
    25   11   12 1
    26   11   28 1
    27   11   29 1
    28   12   13 2
    29   12   14 1
    30   14   15 1
    31   14   30 1
    32   14   31 1
    33   15   32 1
    34   15   33 1
    35   16   17 3
@<TRIPOS>MOLECULE
ZINC62948707
   44    45     0     0     0
SMALL
USER_CHARGES

@<TRIPOS>ATOM
      1 C1         -0.0187    1.5258    0.0104 C.3       1 <0>        -0.1521
      2 C2          0.0021   -0.0041    0.0020 C.3       1 <0>         0.0757
      3 H1         -1.0206   -0.3812    0.0098 H         1 <0>         0.0916
      4 C3          0.7180   -0.4974   -1.2574 C.3       1 <0>        -0.1508
      5 C4          0.7540   -2.0281   -1.2516 C.3       1 <0>        -0.1417
      6 C5          1.4553   -2.5095    0.0215 C.3       1 <0>        -0.0166
      7 H2          2.4855   -2.1532    0.0265 H         1 <0>         0.1330
      8 C6          0.7181   -1.9579    1.2439 C.3       1 <0>         0.0430
      9 N1          0.7119   -0.4903    1.1920 N.3       1 <0>        -0.6608
     10 N2          1.4440   -3.9779    0.0624 N.4       1 <0>        -0.3766
     11 C7          2.1089   -4.4369    1.2879 C.3       1 <0>        -0.0079
     12 C8          2.0286   -5.9625    1.3755 C.3       1 <0>        -0.1437
     13 C9          2.7229   -6.5756    0.1559 C.3       1 <0>         0.0703
     14 C10         2.0693   -6.0322   -1.1180 C.3       1 <0>        -0.1422
     15 C11         2.1481   -4.5040   -1.1132 C.3       1 <0>        -0.0079
     16 N3          2.5833   -8.0374    0.1945 N.3       1 <0>        -0.5384
     17 C12         3.2392   -8.6596   -0.9633 C.3       1 <0>         0.0148
     18 C13         3.1083   -8.5833    1.4532 C.3       1 <0>         0.0141
     19 H3          1.0039    1.9031    0.0027 H         1 <0>         0.0592
     20 H4         -0.5459    1.8868   -0.8726 H         1 <0>         0.0701
     21 H5         -0.5289    1.8773    0.9072 H         1 <0>         0.0722
     22 H6          0.1821   -0.1493   -2.1405 H         1 <0>         0.0937
     23 H7          1.7365   -0.1095   -1.2726 H         1 <0>         0.0758
     24 H8         -0.2642   -2.4166   -1.2757 H         1 <0>         0.0888
     25 H9          1.3010   -2.3829   -2.1251 H         1 <0>         0.0893
     26 H10        -0.3080   -2.3257    1.2457 H         1 <0>         0.0961
     27 H11         1.2233   -2.2870    2.1519 H         1 <0>         0.0996
     28 H12         3.1543   -4.1289    1.2707 H         1 <0>         0.1271
     29 H13         1.6157   -3.9972    2.1548 H         1 <0>         0.1363
     30 H14         2.5244   -6.3014    2.2851 H         1 <0>         0.1136
     31 H15         0.9835   -6.2716    1.3930 H         1 <0>         0.0991
     32 H16         3.7797   -6.3088    0.1657 H         1 <0>         0.0575
     33 H17         2.5941   -6.4210   -1.9906 H         1 <0>         0.1121
     34 H18         1.0250   -6.3427   -1.1522 H         1 <0>         0.0985
     35 H19         1.6838   -4.1139   -2.0189 H         1 <0>         0.1338
     36 H20         3.1927   -4.1946   -1.0792 H         1 <0>         0.1263
     37 H21         4.3001   -8.4096   -0.9577 H         1 <0>         0.0327
     38 H22         3.1207   -9.7419   -0.9098 H         1 <0>         0.0798
     39 H23         2.7835   -8.2892   -1.8816 H         1 <0>         0.0731
     40 H24         2.5574   -8.1574    2.2918 H         1 <0>         0.0741
     41 H25         2.9925   -9.6672    1.4555 H         1 <0>         0.0798
     42 H26         4.1645   -8.3305    1.5464 H         1 <0>         0.0328
     43 H27         1.6510   -0.1231    1.2281 H         1 <0>         0.3528
     44 H28         0.4900   -4.3062    0.0567 H         1 <0>         0.4222
@<TRIPOS>BOND
     1    1    2 1
     2    1   19 1
     3    1   20 1
     4    1   21 1
     5    2    3 1
     6    2    9 1
     7    2    4 1
     8    4    5 1
     9    4   22 1
    10    4   23 1
    11    5    6 1
    12    5   24 1
    13    5   25 1
    14    6    7 1
    15    6    8 1
    16    6   10 1
    17    8    9 1
    18    8   26 1
    19    8   27 1
    20    9   43 1
    21   10   15 1
    22   10   11 1
    23   10   44 1
    24   11   12 1
    25   11   28 1
    26   11   29 1
    27   12   13 1
    28   12   30 1
    29   12   31 1
    30   13   14 1
    31   13   16 1
    32   13   32 1
    33   14   15 1
    34   14   33 1
    35   14   34 1
    36   15   35 1
    37   15   36 1
    38   16   17 1
    39   16   18 1
    40   17   37 1
    41   17   38 1
    42   17   39 1
    43   18   40 1
    44   18   41 1
    45   18   42 1
@<TRIPOS>MOLECULE
ZINC02455788
   30    32     0     0     0
SMALL
USER_CHARGES
4-(5-methylimidazo[1,2-a]pyridin-2-yl)aniline
@<TRIPOS>ATOM
      1 C1         -2.7826   -3.3521    0.0108 C.3       1 <0>        -0.1173
      2 C2         -1.2762   -3.3098   -0.0039 C.2       1 <0>         0.0876
      3 C3         -0.5753   -4.4630   -0.0177 C.2       1 <0>        -0.1480
      4 C4          0.8290   -4.4386   -0.0310 C.2       1 <0>        -0.0963
      5 C5          1.4824   -3.2456   -0.0302 C.2       1 <0>        -0.0875
      6 C6          0.7364   -2.0492   -0.0160 C.2       1 <0>         0.2309
      7 N1         -0.6337   -2.1052   -0.0032 N.pl3     1 <0>        -0.3568
      8 C7         -1.0912   -0.8169    0.0081 C.2       1 <0>        -0.0969
      9 C8          0.0021   -0.0041    0.0020 C.2       1 <0>         0.1172
     10 N2          1.1006   -0.7753   -0.0185 N.2       1 <0>        -0.4881
     11 C9         -0.0180    1.4797    0.0102 C.ar      1 <0>        -0.0767
     12 C10        -1.2339    2.1611    0.0196 C.ar      1 <0>        -0.0521
     13 C11        -1.2504    3.5397    0.0320 C.ar      1 <0>        -0.1998
     14 C12        -0.0556    4.2501    0.0249 C.ar      1 <0>         0.2227
     15 C13         1.1579    3.5725    0.0097 C.ar      1 <0>        -0.2005
     16 C14         1.1789    2.1939    0.0026 C.ar      1 <0>        -0.0357
     17 N3         -0.0746    5.6463    0.0326 N.pl3     1 <0>        -0.8767
     18 H1         -3.1559   -3.3562   -1.0133 H         1 <0>         0.0851
     19 H2         -3.1157   -4.2549    0.5226 H         1 <0>         0.0908
     20 H3         -3.1656   -2.4757    0.5336 H         1 <0>         0.0746
     21 H4         -1.0966   -5.4088   -0.0187 H         1 <0>         0.1503
     22 H5          1.3875   -5.3629   -0.0422 H         1 <0>         0.1437
     23 H6          2.5619   -3.2150   -0.0407 H         1 <0>         0.1512
     24 H7         -2.1245   -0.5028    0.0200 H         1 <0>         0.1812
     25 H8         -2.1625    1.6096    0.0214 H         1 <0>         0.1221
     26 H9         -2.1922    4.0681    0.0435 H         1 <0>         0.1230
     27 H10         2.0851    4.1263    0.0038 H         1 <0>         0.1229
     28 H11         2.1220    1.6678   -0.0092 H         1 <0>         0.1312
     29 H12         0.7588    6.1426    0.0273 H         1 <0>         0.3991
     30 H13        -0.9211    6.1198    0.0432 H         1 <0>         0.3986
@<TRIPOS>BOND
     1    1    2 1
     2    1   18 1
     3    1   19 1
     4    1   20 1
     5    2    7 1
     6    2    3 2
     7    3    4 1
     8    3   21 1
     9    4    5 2
    10    4   22 1
    11    5    6 1
    12    5   23 1
    13    6   10 2
    14    6    7 1
    15    7    8 1
    16    8    9 2
    17    8   24 1
    18    9   10 1
    19    9   11 1
    20   11   16 ar
    21   11   12 ar
    22   12   13 ar
    23   12   25 1
    24   13   14 ar
    25   13   26 1
    26   14   15 ar
    27   14   17 1
    28   15   16 ar
    29   15   27 1
    30   16   28 1
    31   17   29 1
    32   17   30 1
@<TRIPOS>MOLECULE
ZINC35728316
   21    22     0     0     0
SMALL
USER_CHARGES

@<TRIPOS>ATOM
      1 C1         -0.0168    1.3842    0.0097 C.ar      1 <0>        -0.1225
      2 C2          1.1705    2.0898    0.0021 C.ar      1 <0>        -0.0616
      3 C3          2.3780    1.4143   -0.0135 C.ar      1 <0>        -0.1099
      4 C4          2.3995    0.0309   -0.0211 C.ar      1 <0>        -0.0596
      5 C5          1.2151   -0.6794   -0.0137 C.ar      1 <0>        -0.1408
      6 C6          0.0021   -0.0041    0.0020 C.ar      1 <0>         0.1931
      7 N1         -1.2015   -0.7226    0.0097 N.pl3     1 <0>        -0.3242
      8 C7         -1.3260   -2.0792    0.0090 C.2       1 <0>        -0.0402
      9 C8         -2.6521   -2.3677    0.0185 C.2       1 <0>         0.0784
     10 C9         -3.3566   -1.1546    0.0251 C.2       1 <0>         0.0281
     11 N2         -2.4900   -0.1735    0.0254 N.2       1 <0>        -0.2638
     12 N3         -3.2199   -3.6557    0.0208 N.pl3     1 <0>        -0.8709
     13 Br1         4.0016    2.3837   -0.0251 Br        1 <0>        -0.0434
     14 H1         -0.9589    1.9119    0.0260 H         1 <0>         0.1465
     15 H2          1.1564    3.1697    0.0080 H         1 <0>         0.1424
     16 H3          3.3433   -0.4940   -0.0333 H         1 <0>         0.1427
     17 H4          1.2325   -1.7593   -0.0203 H         1 <0>         0.1388
     18 H5         -0.5170   -2.7946    0.0023 H         1 <0>         0.1754
     19 H6         -4.4313   -1.0482    0.0328 H         1 <0>         0.1911
     20 H7         -2.6468   -4.4384    0.0154 H         1 <0>         0.3990
     21 H8         -4.1841   -3.7607    0.0279 H         1 <0>         0.4014
@<TRIPOS>BOND
     1    1    6 ar
     2    1    2 ar
     3    1   14 1
     4    2    3 ar
     5    2   15 1
     6    3    4 ar
     7    3   13 1
     8    4    5 ar
     9    4   16 1
    10    5    6 ar
    11    5   17 1
    12    6    7 1
    13    7   11 1
    14    7    8 1
    15    8    9 2
    16    8   18 1
    17    9   10 1
    18    9   12 1
    19   10   11 2
    20   10   19 1
    21   12   20 1
    22   12   21 1
@<TRIPOS>MOLECULE
ZINC39504963
   26    27     0     0     0
SMALL
USER_CHARGES

@<TRIPOS>ATOM
      1 C1         -0.0189    1.5451    0.0105 C.3       1 <0>        -0.1125
      2 C2          1.4726    1.9446   -0.0016 C.3       1 <0>        -0.1293
      3 C3          2.2337    0.7567   -0.6022 C.3       1 <0>         0.0904
      4 C4          1.1947   -0.3266   -0.9342 C.3       1 <0>        -0.0952
      5 C5          0.0021   -0.0041    0.0020 C.3       1 <0>        -0.0528
      6 H1          0.1817   -0.3932    1.0042 H         1 <0>         0.1112
      7 Br1        -1.6746   -0.7192   -0.7346 Br        1 <0>        -0.1507
      8 C6          3.2585    0.2134    0.4077 C.3       1 <0>        -0.1286
      9 C7          4.4571   -0.1834   -0.4960 C.3       1 <0>         0.0926
     10 H2          4.3076   -1.1717   -0.9309 H         1 <0>         0.0791
     11 C8          4.4062    0.9161   -1.5867 C.3       1 <0>        -0.0342
     12 N1          2.9637    1.1605   -1.8108 N.3       1 <0>        -0.3163
     13 O1          2.7133    2.5662   -2.1295 O.3       1 <0>        -0.4258
     14 O2          5.6862   -0.1278    0.2307 O.3       1 <0>        -0.5562
     15 H3         -0.5056    1.9150    0.9130 H         1 <0>         0.0790
     16 H4         -0.5227    1.9246   -0.8785 H         1 <0>         0.0830
     17 H5          1.6173    2.8319   -0.6179 H         1 <0>         0.1053
     18 H6          1.8173    2.1344    1.0149 H         1 <0>         0.0712
     19 H7          0.8903   -0.2567   -1.9785 H         1 <0>         0.0958
     20 H8          1.5935   -1.3176   -0.7171 H         1 <0>         0.0817
     21 H9          3.5497    0.9883    1.1168 H         1 <0>         0.0863
     22 H10         2.8624   -0.6585    0.9282 H         1 <0>         0.0896
     23 H11         4.8944    1.8243   -1.2330 H         1 <0>         0.0772
     24 H12         4.8782    0.5631   -2.5036 H         1 <0>         0.0956
     25 H13         3.1744    2.8784   -2.9201 H         1 <0>         0.3797
     26 H14         6.4635   -0.3674   -0.2922 H         1 <0>         0.3840
@<TRIPOS>BOND
     1    1    5 1
     2    1    2 1
     3    1   15 1
     4    1   16 1
     5    2    3 1
     6    2   17 1
     7    2   18 1
     8    3   12 1
     9    3    4 1
    10    3    8 1
    11    4    5 1
    12    4   19 1
    13    4   20 1
    14    5    6 1
    15    5    7 1
    16    8    9 1
    17    8   21 1
    18    8   22 1
    19    9   10 1
    20    9   11 1
    21    9   14 1
    22   11   12 1
    23   11   23 1
    24   11   24 1
    25   12   13 1
    26   13   25 1
    27   14   26 1
@<TRIPOS>MOLECULE
ZINC44154232
   19    20     0     0     0
SMALL
USER_CHARGES

@<TRIPOS>ATOM
      1 C1         -0.0163    1.3539    0.0095 C.2       1 <0>         0.0645
      2 C2          1.2536    1.8175   -0.0001 C.2       1 <0>        -0.1660
      3 C3          2.1166    0.7021   -0.0145 C.2       1 <0>        -0.0586
      4 C4          1.3094   -0.4308   -0.0109 C.2       1 <0>        -0.0207
      5 N1          0.0021   -0.0041    0.0020 N.pl3     1 <0>        -0.5120
      6 H1         -0.7792   -0.5790    0.0053 H         1 <0>         0.4316
      7 C5          1.7757   -1.8153   -0.0166 C.2       1 <0>         0.5922
      8 O1          1.1572   -2.6596    0.6053 O.2       1 <0>        -0.5416
      9 N2          2.8744   -2.1683   -0.6962 N.am      1 <0>        -0.7032
     10 C6          3.6143   -1.2339   -1.5306 C.3       1 <0>         0.1354
     11 C7          4.2814   -0.1673   -0.7151 C.2       1 <0>        -0.1711
     12 C8          3.5864    0.7258   -0.0322 C.2       1 <0>        -0.0693
     13 Br1         1.7783    3.6343    0.0042 Br        1 <0>        -0.0160
     14 H2         -0.9054    1.9669    0.0253 H         1 <0>         0.1863
     15 H3          3.1893   -3.0834   -0.6297 H         1 <0>         0.4098
     16 H4          4.3738   -1.7810   -2.0892 H         1 <0>         0.0990
     17 H5          2.9267   -0.7649   -2.2345 H         1 <0>         0.0796
     18 H6          5.3602   -0.1282   -0.6839 H         1 <0>         0.1290
     19 H7          4.1094    1.4896    0.5242 H         1 <0>         0.1311
@<TRIPOS>BOND
     1    1    5 1
     2    1    2 2
     3    1   14 1
     4    2    3 1
     5    2   13 1
     6    3   12 1
     7    3    4 2
     8    4    5 1
     9    4    7 1
    10    5    6 1
    11    7    8 2
    12    7    9 am
    13    9   10 1
    14    9   15 1
    15   10   11 1
    16   10   16 1
    17   10   17 1
    18   11   12 2
    19   11   18 1
    20   12   19 1
@<TRIPOS>MOLECULE
ZINC43321919
   21    22     0     0     0
SMALL
USER_CHARGES

@<TRIPOS>ATOM
      1 C1         -0.0184    1.5028    0.0103 C.3       1 <0>        -0.1149
      2 C2          0.0021   -0.0041    0.0020 C.ar      1 <0>        -0.1436
      3 C3          0.0057   -0.6873   -1.1993 C.ar      1 <0>         0.1430
      4 C4          0.0244   -2.0720   -1.2160 C.ar      1 <0>        -0.1709
      5 C5          0.0396   -2.7741   -0.0234 C.ar      1 <0>        -0.0201
      6 C6          0.0360   -2.0950    1.1739 C.ar      1 <0>        -0.1505
      7 C7          0.0230   -0.7057    1.2050 C.ar      1 <0>         0.1821
      8 N1          0.0289   -0.2528    2.5248 N.am      1 <0>        -0.6533
      9 C8          0.0508   -1.2638    3.4096 C.2       1 <0>         0.5057
     10 O1          0.0605   -1.1632    4.6182 O.2       1 <0>        -0.4860
     11 C9          0.0485   -2.5522    2.6145 C.3       1 <0>         0.1236
     12 H1          0.9532   -3.1220    2.8264 H         1 <0>         0.1137
     13 O2         -1.1143   -3.3312    2.9026 O.3       1 <0>        -0.5287
     14 F1         -0.0096   -0.0011   -2.3629 F         1 <0>        -0.1272
     15 H2          1.0042    1.8801    0.0026 H         1 <0>         0.0778
     16 H3         -0.5455    1.8639   -0.8728 H         1 <0>         0.0786
     17 H4         -0.5286    1.8543    0.9071 H         1 <0>         0.0677
     18 H5          0.0268   -2.6023   -2.1568 H         1 <0>         0.1479
     19 H6          0.0539   -3.8540   -0.0322 H         1 <0>         0.1448
     20 H7          0.0188    0.6843    2.7749 H         1 <0>         0.4169
     21 H8         -1.1577   -3.6508    3.8143 H         1 <0>         0.3934
@<TRIPOS>BOND
     1    1    2 1
     2    1   15 1
     3    1   16 1
     4    1   17 1
     5    2    7 ar
     6    2    3 ar
     7    3    4 ar
     8    3   14 1
     9    4    5 ar
    10    4   18 1
    11    5    6 ar
    12    5   19 1
    13    6   11 1
    14    6    7 ar
    15    7    8 1
    16    8    9 am
    17    8   20 1
    18    9   10 2
    19    9   11 1
    20   11   12 1
    21   11   13 1
    22   13   21 1
@<TRIPOS>MOLECULE
ZINC01841073
   14    14     0     0     0
SMALL
USER_CHARGES
3,5-dichloro-4-fluoro-aniline
@<TRIPOS>ATOM
      1 C1          0.0021   -0.0041    0.0020 C.ar      1 <0>        -0.1621
      2 C2         -0.0168    1.3844    0.0097 C.ar      1 <0>         0.2349
      3 C3          1.1772    2.0935    0.0021 C.ar      1 <0>        -0.1622
      4 C4          2.3823    1.4162   -0.0135 C.ar      1 <0>        -0.0123
      5 C5          2.3992    0.0309   -0.0211 C.ar      1 <0>         0.0560
      6 C6          1.2089   -0.6781   -0.0131 C.ar      1 <0>        -0.0123
      7 Cl1         1.2331   -2.4139   -0.0227 Cl        1 <0>        -0.0336
      8 F1          3.5777   -0.6294   -0.0359 F         1 <0>        -0.1188
      9 Cl2         3.8752    2.3020   -0.0230 Cl        1 <0>        -0.0336
     10 N1         -1.2365    2.0678    0.0192 N.pl3     1 <0>        -0.8644
     11 H1         -0.9256   -0.5571    0.0075 H         1 <0>         0.1482
     12 H2          1.1644    3.1734    0.0080 H         1 <0>         0.1482
     13 H3         -2.0702    1.5720    0.0204 H         1 <0>         0.4061
     14 H4         -1.2490    3.0377    0.0245 H         1 <0>         0.4061
@<TRIPOS>BOND
     1    1    6 ar
     2    1    2 ar
     3    1   11 1
     4    2    3 ar
     5    2   10 1
     6    3    4 ar
     7    3   12 1
     8    4    5 ar
     9    4    9 1
    10    5    6 ar
    11    5    8 1
    12    6    7 1
    13   10   13 1
    14   10   14 1
@<TRIPOS>MOLECULE
ZINC01764697
   31    31     0     0     0
SMALL
USER_CHARGES
2-[(1S,3R)-2,2,3-trimethylcyclopentyl]acetamide
@<TRIPOS>ATOM
      1 C1          0.1044    1.6974    2.4598 C.3       1 <0>        -0.1476
      2 C2         -0.8023    1.6174    1.2299 C.3       1 <0>        -0.0871
      3 H1         -1.6654    0.9830    1.4318 H         1 <0>         0.0729
      4 C3         -0.0127    1.0858    0.0080 C.3       1 <0>        -0.1228
      5 C4         -0.8254    1.6304   -1.1928 C.3       1 <0>        -0.1131
      6 C5         -1.2720    3.0362   -0.7411 C.3       1 <0>        -0.0676
      7 H2         -0.5771    3.7873   -1.1166 H         1 <0>         0.0811
      8 C6         -1.2600    3.0279    0.7976 C.3       1 <0>        -0.0623
      9 C7         -0.2758    4.0765    1.3197 C.3       1 <0>        -0.1402
     10 C8         -2.6639    3.3143    1.3342 C.3       1 <0>        -0.1447
     11 C9         -2.6843    3.3271   -1.2526 C.3       1 <0>        -0.1389
     12 C10        -2.6645    3.4203   -2.7566 C.2       1 <0>         0.5120
     13 O1         -1.6233    3.2690   -3.3599 O.2       1 <0>        -0.5395
     14 N1         -3.8038    3.6718   -3.4313 N.am      1 <0>        -0.8607
     15 H3          0.9498    2.3514    2.2460 H         1 <0>         0.0605
     16 H4         -0.4603    2.0971    3.3021 H         1 <0>         0.0534
     17 H5          0.4696    0.7007    2.7074 H         1 <0>         0.0518
     18 H6          0.0021   -0.0041    0.0020 H         1 <0>         0.0638
     19 H7          1.0018    1.4845    0.0005 H         1 <0>         0.0667
     20 H8         -0.1963    1.6968   -2.0805 H         1 <0>         0.0733
     21 H9         -1.6923    0.9981   -1.3849 H         1 <0>         0.0588
     22 H10        -0.5767    5.0637    0.9691 H         1 <0>         0.0513
     23 H11        -0.2746    4.0628    2.4096 H         1 <0>         0.0588
     24 H12         0.7252    3.8500    0.9524 H         1 <0>         0.0572
     25 H13        -3.3526    2.5486    0.9771 H         1 <0>         0.0573
     26 H14        -2.6450    3.3063    2.4240 H         1 <0>         0.0543
     27 H15        -2.9943    4.2921    0.9837 H         1 <0>         0.0571
     28 H16        -3.3541    2.5232   -0.9472 H         1 <0>         0.0960
     29 H17        -3.0349    4.2707   -0.8347 H         1 <0>         0.0967
     30 H18        -4.6366    3.7928   -2.9487 H         1 <0>         0.4008
     31 H19        -3.7911    3.7319   -4.3993 H         1 <0>         0.4004
@<TRIPOS>BOND
     1    1    2 1
     2    1   15 1
     3    1   16 1
     4    1   17 1
     5    2    3 1
     6    2    8 1
     7    2    4 1
     8    4    5 1
     9    4   18 1
    10    4   19 1
    11    5    6 1
    12    5   20 1
    13    5   21 1
    14    6    7 1
    15    6    8 1
    16    6   11 1
    17    8    9 1
    18    8   10 1
    19    9   22 1
    20    9   23 1
    21    9   24 1
    22   10   25 1
    23   10   26 1
    24   10   27 1
    25   11   12 1
    26   11   28 1
    27   11   29 1
    28   12   13 2
    29   12   14 am
    30   14   30 1
    31   14   31 1
@<TRIPOS>MOLECULE
ZINC32850707
   29    29     0     0     0
SMALL
USER_CHARGES
(1S,3S)-2,2-dimethyl-3-(2-methylprop-1-enyl)cyclopropanecarboxamide
@<TRIPOS>ATOM
      1 C1         -3.1629    2.9962    2.3565 C.3       1 <0>        -0.1265
      2 C2         -3.1184    1.4988    2.1926 C.2       1 <0>        -0.1289
      3 C3         -2.2009    0.9498    1.4357 C.2       1 <0>        -0.1599
      4 C4         -1.1899    1.8156    0.7290 C.3       1 <0>        -0.0922
      5 H1         -1.2856    2.6171    1.4763 H         1 <0>         0.1446
      6 C5         -0.0266    1.1132    0.0261 C.3       1 <0>        -0.1774
      7 H2          0.4371    0.1173    0.0828 H         1 <0>         0.1311
      8 C6         -1.1470    1.7485   -0.7997 C.3       1 <0>        -0.0453
      9 C7         -0.8233    3.0393   -1.5546 C.3       1 <0>        -0.1305
     10 C8         -2.1336    0.8074   -1.4939 C.3       1 <0>        -0.1179
     11 C9          1.3115    1.8065    0.0333 C.2       1 <0>         0.5191
     12 O1          1.4251    2.9000    0.5454 O.2       1 <0>        -0.5514
     13 N1          2.3818    1.2113   -0.5294 N.am      1 <0>        -0.8807
     14 C10        -4.1293    0.6330    2.8993 C.3       1 <0>        -0.1180
     15 H3         -3.9947    3.2675    3.0232 H         1 <0>         0.0636
     16 H4         -3.3113    3.4683    1.3741 H         1 <0>         0.0697
     17 H5         -2.2151    3.3457    2.7919 H         1 <0>         0.0711
     18 H6         -2.1684   -0.1432    1.3159 H         1 <0>         0.1037
     19 H7         -0.8272    2.8420   -2.6368 H         1 <0>         0.0622
     20 H8          0.1700    3.4020   -1.2516 H         1 <0>         0.0691
     21 H9         -1.5800    3.8019   -1.3182 H         1 <0>         0.0673
     22 H10        -1.9889    0.8629   -2.5829 H         1 <0>         0.0640
     23 H11        -3.1625    1.1064   -1.2450 H         1 <0>         0.0668
     24 H12        -1.9587   -0.2237   -1.1528 H         1 <0>         0.0615
     25 H13         3.3585    1.7173   -0.5242 H         1 <0>         0.4218
     26 H14         2.2786    0.2195   -0.9939 H         1 <0>         0.4188
     27 H15        -3.9382   -0.4235    2.6602 H         1 <0>         0.0607
     28 H16        -5.1419    0.9066    2.5679 H         1 <0>         0.0670
     29 H17        -4.0457    0.7840    3.9857 H         1 <0>         0.0665
@<TRIPOS>BOND
     1    1    2 1
     2    1   15 1
     3    1   16 1
     4    1   17 1
     5    2    3 2
     6    2   14 1
     7    3    4 1
     8    3   18 1
     9    4    5 1
    10    4    8 1
    11    4    6 1
    12    6    7 1
    13    6    8 1
    14    6   11 1
    15    8    9 1
    16    8   10 1
    17    9   19 1
    18    9   20 1
    19    9   21 1
    20   10   22 1
    21   10   23 1
    22   10   24 1
    23   11   12 2
    24   11   13 am
    25   13   25 1
    26   13   26 1
    27   14   27 1
    28   14   28 1
    29   14   29 1
@<TRIPOS>MOLECULE
ZINC39118688
   20    20     0     0     0
SMALL
USER_CHARGES

@<TRIPOS>ATOM
      1 C1         -0.0187    1.5258    0.0104 C.3       1 <0>        -0.1544
      2 C2          0.0021   -0.0041    0.0020 C.3       1 <0>        -0.1200
      3 C3          0.7182   -0.4975   -1.2568 C.3       1 <0>        -0.0192
      4 C4          0.7386   -2.0043   -1.2651 C.2       1 <0>        -0.2440
      5 C5         -0.1663   -2.8692   -1.7938 C.2       1 <0>         0.1706
      6 C6          0.0644   -4.2308   -1.6800 C.2       1 <0>        -0.1907
      7 C7          1.1843   -4.6562   -1.0454 C.2       1 <0>        -0.1484
      8 S1          1.9618   -3.1153   -0.5897 S.3       1 <0>         0.0323
      9 N1         -1.3186   -2.3902   -2.4456 N.pl3     1 <0>        -0.8761
     10 H1          1.0039    1.9031    0.0027 H         1 <0>         0.0553
     11 H2         -0.5459    1.8868   -0.8726 H         1 <0>         0.0540
     12 H3         -0.5289    1.8773    0.9072 H         1 <0>         0.0559
     13 H4          0.5293   -0.3651    0.8851 H         1 <0>         0.0641
     14 H5         -1.0205   -0.3814    0.0098 H         1 <0>         0.0615
     15 H6          0.1910   -0.1364   -2.1398 H         1 <0>         0.0735
     16 H7          1.7408   -0.1202   -1.2645 H         1 <0>         0.0739
     17 H8         -0.6373   -4.9421   -2.0901 H         1 <0>         0.1325
     18 H9          1.5212   -5.6665   -0.8657 H         1 <0>         0.1870
     19 H10        -1.4720   -1.4353   -2.5203 H         1 <0>         0.3975
     20 H11        -1.9592   -3.0151   -2.8201 H         1 <0>         0.3949
@<TRIPOS>BOND
     1    1    2 1
     2    1   10 1
     3    1   11 1
     4    1   12 1
     5    2    3 1
     6    2   13 1
     7    2   14 1
     8    3    4 1
     9    3   15 1
    10    3   16 1
    11    4    8 1
    12    4    5 2
    13    5    6 1
    14    5    9 1
    15    6    7 2
    16    6   17 1
    17    7    8 1
    18    7   18 1
    19    9   19 1
    20    9   20 1
@<TRIPOS>MOLECULE
ZINC51665439
   25    24     0     0     0
SMALL
NO_CHARGES

@<TRIPOS>ATOM
      1 C1          0.1522    1.5459    0.0996 C.3       1 <0>        -0.1535
      2 C2          0.1639    0.0160    0.0919 C.3       1 <0>        -0.1213
      3 C3          0.7182   -0.4830   -1.2440 C.3       1 <0>        -0.0511
      4 H1          0.1424   -0.0486   -2.0613 H         1 <0>         0.0643
      5 C4          0.6144   -2.0084   -1.3014 C.3       1 <0>        -0.0024
      6 C5          1.0724   -2.4822   -2.6176 C.1       1 <0>        -0.1848
      7 C6          1.4378   -2.8601   -3.6674 C.1       1 <0>        -0.2045
      8 C7          1.8959   -3.3339   -4.9836 C.3       1 <0>        -0.0393
      9 N1          2.1260   -0.0829   -1.3701 N.4       1 <0>        -0.4209
     10 C8          2.9222   -0.7617   -0.3390 C.3       1 <0>        -0.1168
     11 H2          1.1681    1.9178   -0.0339 H         1 <0>         0.0561
     12 H3         -0.4772    1.9086   -0.7131 H         1 <0>         0.0526
     13 H4         -0.2427    1.9015    1.0513 H         1 <0>         0.0531
     14 H5          0.7932   -0.3466    0.9046 H         1 <0>         0.0652
     15 H6         -0.8520   -0.3558    0.2253 H         1 <0>         0.0566
     16 H7          1.2379   -2.4446   -0.5210 H         1 <0>         0.0841
     17 H8         -0.4224   -2.3080   -1.1480 H         1 <0>         0.0709
     18 H9          1.8219   -4.4206   -5.0245 H         1 <0>         0.0778
     19 H10         1.2723   -2.8977   -5.7640 H         1 <0>         0.0779
     20 H11         2.9326   -3.0343   -5.1370 H         1 <0>         0.0776
     21 H12         2.4685   -0.3409   -2.2835 H         1 <0>         0.2036
     22 H13         2.4893   -0.5656    0.6420 H         1 <0>         0.0584
     23 H14         2.9223   -1.8352   -0.5280 H         1 <0>         0.0541
     24 H15         3.9458   -0.3879   -0.3657 H         1 <0>         0.0395
     25 H16         2.2037    0.9161   -1.2517 H         1 <0>         0.2028
@<TRIPOS>BOND
     1    1    2 1
     2    1   11 1
     3    1   12 1
     4    1   13 1
     5    2    3 1
     6    2   14 1
     7    2   15 1
     8    3    4 1
     9    3    5 1
    10    3    9 1
    11    5    6 1
    12    5   16 1
    13    5   17 1
    14    6    7 3
    15    7    8 1
    16    8   18 1
    17    8   19 1
    18    8   20 1
    19    9   10 1
    20    9   21 1
    21    9   25 1
    22   10   22 1
    23   10   23 1
    24   10   24 1
@<TRIPOS>MOLECULE
ZINC01725253
   35    37     0     0     0
SMALL
USER_CHARGES
ethyl dimethylBLAHcarboxylate
@<TRIPOS>ATOM
      1 C1         -0.7527    1.5927   -1.2315 C.3       1 <0>        -0.1535
      2 C2         -0.0127    1.0858    0.0080 C.3       1 <0>         0.0631
      3 O1         -0.6923    1.5541    1.2026 O.3       1 <0>        -0.3636
      4 C3         -0.1635    1.1923    2.3896 C.2       1 <0>         0.5401
      5 O2          0.8385    0.5040    2.4244 O.2       1 <0>        -0.4927
      6 C4         -0.7966    1.6286    3.6375 C.2       1 <0>        -0.0619
      7 C5         -0.3627    1.3326    4.9041 C.2       1 <0>        -0.0100
      8 C6         -1.2501    1.9384    5.7852 C.2       1 <0>        -0.1346
      9 C7         -2.2092    2.6193    5.0296 C.2       1 <0>         0.1020
     10 N1         -1.9287    2.4131    3.7386 N.pl3     1 <0>        -0.3892
     11 C8         -2.7024    2.9345    2.6091 C.3       1 <0>         0.0567
     12 C9         -3.3142    3.4283    5.6565 C.3       1 <0>        -0.0540
     13 C10        -3.7217    2.8536    7.0159 C.3       1 <0>        -0.0302
     14 C11        -2.5263    2.4368    7.8139 C.2       1 <0>        -0.2296
     15 C12        -1.3494    1.9761    7.2512 C.2       1 <0>         0.0653
     16 O3         -0.5518    1.6522    8.2538 O.3       1 <0>         0.1181
     17 N2         -1.0782    1.8884    9.3261 N.2       1 <0>        -0.3783
     18 C13        -2.2887    2.3687    9.1838 C.2       1 <0>         0.0165
     19 C14         0.8450    0.5090    5.2703 C.3       1 <0>        -0.1002
     20 H1         -0.2425    1.2411   -2.1283 H         1 <0>         0.0829
     21 H2         -1.7753    1.2154   -1.2238 H         1 <0>         0.0668
     22 H3         -0.7675    2.6825   -1.2255 H         1 <0>         0.0665
     23 H4          0.0021   -0.0041    0.0020 H         1 <0>         0.0731
     24 H5          1.0099    1.4631    0.0003 H         1 <0>         0.0730
     25 H6         -3.4792    2.2190    2.3397 H         1 <0>         0.0866
     26 H7         -3.1626    3.8817    2.8904 H         1 <0>         0.0919
     27 H8         -2.0410    3.0908    1.7569 H         1 <0>         0.1069
     28 H9         -4.1795    3.4246    4.9936 H         1 <0>         0.0905
     29 H10        -2.9720    4.4544    5.7908 H         1 <0>         0.0943
     30 H11        -4.3649    1.9878    6.8585 H         1 <0>         0.0822
     31 H12        -4.2743    3.6116    7.5711 H         1 <0>         0.0922
     32 H13        -2.9677    2.6554    9.9732 H         1 <0>         0.1925
     33 H14         1.7153    1.1594    5.3582 H         1 <0>         0.0788
     34 H15         0.6682    0.0080    6.2221 H         1 <0>         0.0718
     35 H16         1.0251   -0.2362    4.4955 H         1 <0>         0.0861
@<TRIPOS>BOND
     1    1    2 1
     2    1   20 1
     3    1   21 1
     4    1   22 1
     5    2    3 1
     6    2   23 1
     7    2   24 1
     8    3    4 1
     9    4    5 2
    10    4    6 1
    11    6   10 1
    12    6    7 2
    13    7    8 1
    14    7   19 1
    15    8   15 1
    16    8    9 2
    17    9   10 1
    18    9   12 1
    19   10   11 1
    20   11   25 1
    21   11   26 1
    22   11   27 1
    23   12   13 1
    24   12   28 1
    25   12   29 1
    26   13   14 1
    27   13   30 1
    28   13   31 1
    29   14   18 1
    30   14   15 2
    31   15   16 1
    32   16   17 1
    33   17   18 2
    34   18   32 1
    35   19   33 1
    36   19   34 1
    37   19   35 1
@<TRIPOS>MOLECULE
ZINC33359418
   38    39     0     0     0
SMALL
USER_CHARGES
(7S)-2-chloro-8-isopentyl-5,7-dimethyl-7H-pteridin-6-one
@<TRIPOS>ATOM
      1 C1         -0.7327    1.5673   -1.2345 C.3       1 <0>        -0.1362
      2 C2         -0.0055    1.0756    0.0186 C.3       1 <0>         0.0664
      3 H1          0.0106   -0.0230    0.0710 H         1 <0>         0.0988
      4 C3          1.4093    1.5954    0.0111 C.2       1 <0>         0.5231
      5 O1          1.9395    1.9126   -1.0327 O.2       1 <0>        -0.4893
      6 N1          2.0811    1.7051    1.1783 N.am      1 <0>        -0.5458
      7 C4          1.3996    1.4359    2.3716 C.ar      1 <0>         0.0245
      8 C5          2.0763    1.2843    3.5675 C.ar      1 <0>         0.1495
      9 N2          1.3803    1.0184    4.6662 N.ar      1 <0>        -0.4962
     10 C6          0.0671    0.9062    4.6274 C.ar      1 <0>         0.3646
     11 N3         -0.6191    1.0635    3.5107 N.ar      1 <0>        -0.5040
     12 C7          0.0035    1.3401    2.3702 C.ar      1 <0>         0.3562
     13 N4         -0.7149    1.5557    1.2080 N.pl3     1 <0>        -0.4607
     14 C8         -2.0542    0.9590    1.2988 C.3       1 <0>         0.0555
     15 C9         -1.9267   -0.5532    1.4935 C.3       1 <0>        -0.1516
     16 C10        -3.3176   -1.1900    1.4654 C.3       1 <0>        -0.0871
     17 C11        -3.1829   -2.7125    1.5349 C.3       1 <0>        -0.1499
     18 C12        -4.1297   -0.6946    2.6638 C.3       1 <0>        -0.1496
     19 Cl1        -0.7877    0.5389    6.0930 Cl        1 <0>         0.0346
     20 C13         3.4924    2.0978    1.1951 C.3       1 <0>         0.0732
     21 H2         -0.2035    1.2091   -2.1298 H         1 <0>         0.0866
     22 H3         -0.7555    2.6671   -1.2374 H         1 <0>         0.0768
     23 H4         -1.7620    1.1792   -1.2371 H         1 <0>         0.0773
     24 H5          3.1513    1.3802    3.6071 H         1 <0>         0.1858
     25 H6         -2.5925    1.3946    2.1535 H         1 <0>         0.1092
     26 H7         -2.6105    1.1638    0.3722 H         1 <0>         0.0961
     27 H8         -1.3131   -0.9766    0.6846 H         1 <0>         0.0599
     28 H9         -1.4486   -0.7591    2.4625 H         1 <0>         0.0764
     29 H10        -3.8306   -0.9094    0.5337 H         1 <0>         0.0716
     30 H11        -4.1829   -3.1704    1.5147 H         1 <0>         0.0581
     31 H12        -2.6699   -2.9930    2.4666 H         1 <0>         0.0544
     32 H13        -2.5991   -3.0686    0.6733 H         1 <0>         0.0526
     33 H14        -5.1297   -1.1525    2.6435 H         1 <0>         0.0544
     34 H15        -4.2265    0.4000    2.6138 H         1 <0>         0.0582
     35 H16        -3.6167   -0.9752    3.5955 H         1 <0>         0.0578
     36 H17         3.8520    2.1289    2.2342 H         1 <0>         0.0884
     37 H18         3.6015    3.0930    0.7394 H         1 <0>         0.0808
     38 H19         4.0833    1.3663    0.6243 H         1 <0>         0.0798
@<TRIPOS>BOND
     1    1    2 1
     2    1   21 1
     3    1   22 1
     4    1   23 1
     5    2    3 1
     6    2   13 1
     7    2    4 1
     8    4    5 2
     9    4    6 am
    10    6    7 1
    11    6   20 1
    12    7   12 ar
    13    7    8 ar
    14    8    9 ar
    15    8   24 1
    16    9   10 ar
    17   10   11 ar
    18   10   19 1
    19   11   12 ar
    20   12   13 1
    21   13   14 1
    22   14   15 1
    23   14   25 1
    24   14   26 1
    25   15   16 1
    26   15   27 1
    27   15   28 1
    28   16   17 1
    29   16   18 1
    30   16   29 1
    31   17   30 1
    32   17   31 1
    33   17   32 1
    34   18   33 1
    35   18   34 1
    36   18   35 1
    37   20   36 1
    38   20   37 1
    39   20   38 1
@<TRIPOS>MOLECULE
ZINC39442573
   46    48     0     0     0
SMALL
USER_CHARGES

@<TRIPOS>ATOM
      1 C1         -0.0184    1.5028    0.0103 C.3       1 <0>        -0.0911
      2 C2          0.0021   -0.0041    0.0020 C.2       1 <0>        -0.0203
      3 C3         -1.0863   -0.7768    0.0030 C.2       1 <0>        -0.1612
      4 C4         -0.5311   -2.1901   -0.0073 C.3       1 <0>        -0.0663
      5 H1         -0.8370   -2.7309    0.8883 H         1 <0>         0.1694
      6 N1          0.9257   -1.9734   -0.0130 N.2       1 <0>        -0.1179
      7 N2          1.1248   -0.7562   -0.0132 N.2       1 <0>        -0.1541
      8 C5         -0.9692   -2.9257   -1.2475 C.2       1 <0>         0.5593
      9 O1         -0.2108   -3.0347   -2.1876 O.2       1 <0>        -0.5067
     10 N3         -2.2038   -3.4626   -1.3118 N.am      1 <0>        -0.6110
     11 C6         -3.1435   -3.3380   -0.1864 C.3       1 <0>         0.0663
     12 C7         -3.6923   -4.7312    0.1418 C.3       1 <0>         0.0476
     13 O2         -4.2063   -5.3277   -1.0515 O.3       1 <0>        -0.3681
     14 C8         -3.2246   -5.5419   -2.0685 C.3       1 <0>         0.0777
     15 H2         -2.4225   -6.1660   -1.6746 H         1 <0>         0.0700
     16 C9         -2.6539   -4.1853   -2.5120 C.3       1 <0>         0.0837
     17 C10        -3.8732   -6.2388   -3.2662 C.3       1 <0>        -0.1072
     18 C11        -4.3383   -7.6365   -2.8525 C.3       1 <0>        -0.0829
     19 C12        -3.1224   -8.4936   -2.4951 C.3       1 <0>        -0.1168
     20 C13        -3.5875   -9.8913   -2.0814 C.3       1 <0>        -0.1194
     21 C14        -4.3460  -10.5404   -3.2408 C.3       1 <0>        -0.1208
     22 C15        -5.5620   -9.6832   -3.5982 C.3       1 <0>        -0.1199
     23 C16        -5.0968   -8.2856   -4.0119 C.3       1 <0>        -0.1146
     24 H3          1.0042    1.8801    0.0026 H         1 <0>         0.0832
     25 H4         -0.5455    1.8639   -0.8728 H         1 <0>         0.0815
     26 H5         -0.5286    1.8543    0.9071 H         1 <0>         0.0826
     27 H6         -2.1213   -0.4684    0.0099 H         1 <0>         0.1778
     28 H7         -2.6242   -2.9340    0.6826 H         1 <0>         0.0929
     29 H8         -3.9639   -2.6765   -0.4647 H         1 <0>         0.0868
     30 H9         -2.8919   -5.3524    0.5437 H         1 <0>         0.0581
     31 H10        -4.4911   -4.6437    0.8783 H         1 <0>         0.1115
     32 H11        -3.4258   -3.6076   -3.0205 H         1 <0>         0.0815
     33 H12        -1.8101   -4.3427   -3.1838 H         1 <0>         0.1041
     34 H13        -4.7299   -5.6564   -3.6053 H         1 <0>         0.0759
     35 H14        -3.1473   -6.3221   -4.0750 H         1 <0>         0.0810
     36 H15        -4.9956   -7.5592   -1.9864 H         1 <0>         0.0794
     37 H16        -2.4652   -8.5710   -3.3612 H         1 <0>         0.0615
     38 H17        -2.5820   -8.0312   -1.6691 H         1 <0>         0.0590
     39 H18        -2.7213  -10.5019   -1.8268 H         1 <0>         0.0601
     40 H19        -4.2448   -9.8140   -1.2153 H         1 <0>         0.0610
     41 H20        -3.6888  -10.6177   -4.1070 H         1 <0>         0.0608
     42 H21        -4.6774  -11.5361   -2.9461 H         1 <0>         0.0601
     43 H22        -6.1023  -10.1456   -4.4242 H         1 <0>         0.0609
     44 H23        -6.2192   -9.6059   -2.7321 H         1 <0>         0.0613
     45 H24        -5.9631   -7.6749   -4.2665 H         1 <0>         0.0619
     46 H25        -4.4396   -8.3629   -4.8780 H         1 <0>         0.0613
@<TRIPOS>BOND
     1    1    2 1
     2    1   24 1
     3    1   25 1
     4    1   26 1
     5    2    7 1
     6    2    3 2
     7    3    4 1
     8    3   27 1
     9    4    5 1
    10    4    6 1
    11    4    8 1
    12    6    7 2
    13    8    9 2
    14    8   10 am
    15   10   16 1
    16   10   11 1
    17   11   12 1
    18   11   28 1
    19   11   29 1
    20   12   13 1
    21   12   30 1
    22   12   31 1
    23   13   14 1
    24   14   15 1
    25   14   16 1
    26   14   17 1
    27   16   32 1
    28   16   33 1
    29   17   18 1
    30   17   34 1
    31   17   35 1
    32   18   23 1
    33   18   19 1
    34   18   36 1
    35   19   20 1
    36   19   37 1
    37   19   38 1
    38   20   21 1
    39   20   39 1
    40   20   40 1
    41   21   22 1
    42   21   41 1
    43   21   42 1
    44   22   23 1
    45   22   43 1
    46   22   44 1
    47   23   45 1
    48   23   46 1
@<TRIPOS>MOLECULE
ZINC50070700
   37    39     0     0     0
SMALL
USER_CHARGES

@<TRIPOS>ATOM
      1 C1         -0.7940    2.4374   -0.0614 C.3       1 <0>        -0.1508
      2 C2         -0.4631    0.9444   -0.0143 C.3       1 <0>        -0.0403
      3 C3         -1.7415    0.1467    0.0012 C.2       1 <0>        -0.1357
      4 C4         -2.4360   -0.3290   -1.0430 C.2       1 <0>        -0.1303
      5 C5         -3.6551   -1.0804   -0.8007 C.ar      1 <0>        -0.2398
      6 C6         -4.5536   -1.6794   -1.7264 C.ar      1 <0>         0.5170
      7 N1         -5.6150   -2.3241   -1.2701 N.ar      1 <0>        -0.5845
      8 C7         -5.8712   -2.4319    0.0215 C.ar      1 <0>         0.3664
      9 N2         -5.0756   -1.8980    0.9277 N.ar      1 <0>        -0.5225
     10 C8         -3.9949   -1.2377    0.5607 C.ar      1 <0>         0.1495
     11 S1         -2.6869   -0.3959    1.4121 S.3       1 <0>         0.1029
     12 N3         -4.3209   -1.5886   -3.0869 N.pl3     1 <0>        -0.5819
     13 C9         -3.1085   -1.0339   -3.7160 C.3       1 <0>         0.1019
     14 C10        -3.0473   -1.6991   -5.1137 C.3       1 <0>        -0.1329
     15 C11        -4.5497   -1.7570   -5.4972 C.3       1 <0>        -0.1197
     16 C12        -5.2389   -2.0352   -4.1449 C.3       1 <0>         0.1563
     17 H1         -5.4353   -3.1022   -4.0393 H         1 <0>         0.1199
     18 C13        -6.5304   -1.2629   -4.0625 C.2       1 <0>         0.4522
     19 O1         -6.6776   -0.4214   -3.2080 O.2       1 <0>        -0.4876
     20 O2         -7.5171   -1.5098   -4.9383 O.3       1 <0>        -0.3523
     21 C14        -8.7136   -0.7405   -4.8015 C.3       1 <0>         0.0351
     22 H2          0.1307    3.0144   -0.0725 H         1 <0>         0.0665
     23 H3         -1.3683    2.6541   -0.9621 H         1 <0>         0.0583
     24 H4         -1.3802    2.7075    0.8170 H         1 <0>         0.0598
     25 H5          0.1231    0.6743   -0.8926 H         1 <0>         0.0887
     26 H6          0.1112    0.7278    0.8865 H         1 <0>         0.0836
     27 H7         -2.0929   -0.1551   -2.0522 H         1 <0>         0.1450
     28 H8         -6.7518   -2.9686    0.3423 H         1 <0>         0.2069
     29 H9         -3.1934    0.0483   -3.8144 H         1 <0>         0.0764
     30 H10        -2.2253   -1.2946   -3.1329 H         1 <0>         0.0938
     31 H11        -2.4883   -1.0811   -5.8164 H         1 <0>         0.0976
     32 H12        -2.6211   -2.7004   -5.0516 H         1 <0>         0.0872
     33 H13        -4.8785   -0.8046   -5.9131 H         1 <0>         0.0849
     34 H14        -4.7378   -2.5705   -6.1979 H         1 <0>         0.1040
     35 H15        -9.4272   -1.0390   -5.5695 H         1 <0>         0.1043
     36 H16        -9.1463   -0.9138   -3.8163 H         1 <0>         0.0610
     37 H17        -8.4797    0.3181   -4.9146 H         1 <0>         0.0589
@<TRIPOS>BOND
     1    1    2 1
     2    1   22 1
     3    1   23 1
     4    1   24 1
     5    2    3 1
     6    2   25 1
     7    2   26 1
     8    3   11 1
     9    3    4 2
    10    4    5 1
    11    4   27 1
    12    5   10 ar
    13    5    6 ar
    14    6    7 ar
    15    6   12 1
    16    7    8 ar
    17    8    9 ar
    18    8   28 1
    19    9   10 ar
    20   10   11 1
    21   12   16 1
    22   12   13 1
    23   13   14 1
    24   13   29 1
    25   13   30 1
    26   14   15 1
    27   14   31 1
    28   14   32 1
    29   15   16 1
    30   15   33 1
    31   15   34 1
    32   16   17 1
    33   16   18 1
    34   18   19 2
    35   18   20 1
    36   20   21 1
    37   21   35 1
    38   21   36 1
    39   21   37 1
@<TRIPOS>MOLECULE
ZINC63024431
   33    34     0     0     0
SMALL
USER_CHARGES

@<TRIPOS>ATOM
      1 C1         -0.2901    1.5015    0.2000 C.3       1 <0>        -0.1621
      2 C2         -0.2540   -0.0281    0.2045 C.3       1 <0>        -0.1067
      3 C3          0.7439   -0.5116    1.2587 C.3       1 <0>        -0.1049
      4 H1          1.7163   -0.0545    1.0752 H         1 <0>         0.1302
      5 C4          0.8709   -2.0112    1.1798 C.ar      1 <0>        -0.0056
      6 C5         -0.2216   -2.8002    1.3704 C.ar      1 <0>        -0.0855
      7 C6         -0.1266   -4.1884    1.3019 C.ar      1 <0>        -0.0278
      8 C7          1.0644   -4.7952    1.0418 C.ar      1 <0>        -0.0284
      9 C8          2.2123   -4.0126    0.8398 C.ar      1 <0>        -0.0697
     10 C9          2.1168   -2.6001    0.9033 C.ar      1 <0>         0.1374
     11 N1          3.2059   -1.8502    0.7062 N.ar      1 <0>        -0.4633
     12 C10         4.3702   -2.3943    0.4481 C.ar      1 <0>         0.1433
     13 C11         4.5319   -3.7758    0.3658 C.ar      1 <0>        -0.1518
     14 C12         3.4623   -4.6006    0.5685 C.ar      1 <0>        -0.0651
     15 N2          1.1484   -6.2715    0.9728 N.pl3     1 <0>         0.0309
     16 O1          0.2453   -6.9059    0.4793 O.2       1 <0>        -0.1423
     17 O2          2.1201   -6.8427    1.4100 O.3       1 <0>        -0.1526
     18 C13         0.2554   -0.1203    2.6296 C.2       1 <0>         0.3661
     19 O3         -0.3821   -0.9048    3.2901 O.2       1 <0>        -0.4515
     20 C14         0.5627    1.2501    3.1762 C.3       1 <0>        -0.2030
     21 H2          0.7019    1.8876   -0.0346 H         1 <0>         0.0640
     22 H3         -1.0010    1.8459   -0.5510 H         1 <0>         0.0645
     23 H4         -0.5968    1.8606    1.1824 H         1 <0>         0.0605
     24 H5         -1.2460   -0.4142    0.4390 H         1 <0>         0.0709
     25 H6          0.0527   -0.3872   -0.7779 H         1 <0>         0.0793
     26 H7         -1.1776   -2.3428    1.5785 H         1 <0>         0.1567
     27 H8         -1.0090   -4.7913    1.4575 H         1 <0>         0.1562
     28 H9          5.2269   -1.7547    0.2948 H         1 <0>         0.1723
     29 H10         5.5040   -4.1943    0.1508 H         1 <0>         0.1512
     30 H11         3.5696   -5.6736    0.5088 H         1 <0>         0.1577
     31 H12         1.1423    1.8119    2.4437 H         1 <0>         0.0870
     32 H13        -0.3694    1.7761    3.3828 H         1 <0>         0.0969
     33 H14         1.1372    1.1534    4.0974 H         1 <0>         0.0952
@<TRIPOS>BOND
     1    1    2 1
     2    1   21 1
     3    1   22 1
     4    1   23 1
     5    2    3 1
     6    2   24 1
     7    2   25 1
     8    3    4 1
     9    3    5 1
    10    3   18 1
    11    5   10 ar
    12    5    6 ar
    13    6    7 ar
    14    6   26 1
    15    7    8 ar
    16    7   27 1
    17    8    9 ar
    18    8   15 1
    19    9   14 ar
    20    9   10 ar
    21   10   11 ar
    22   11   12 ar
    23   12   13 ar
    24   12   28 1
    25   13   14 ar
    26   13   29 1
    27   14   30 1
    28   15   16 2
    29   15   17 1
    30   18   19 2
    31   18   20 1
    32   20   31 1
    33   20   32 1
    34   20   33 1
@<TRIPOS>MOLECULE
ZINC15569318
   30    32     0     0     0
SMALL
USER_CHARGES
(5R)-5-methyl-3-(1-naphthyl)-2-thioxo-imidazolidin-4-one
@<TRIPOS>ATOM
      1 C1         -1.2504    4.5730   -1.2180 C.3       1 <0>        -0.1522
      2 C2         -0.7341    3.8536    0.0298 C.3       1 <0>         0.0744
      3 H1         -1.0849    4.3541    0.9323 H         1 <0>         0.1458
      4 C3          0.7798    3.7801    0.0149 C.2       1 <0>         0.5134
      5 O1          1.5582    4.7098    0.0119 O.2       1 <0>        -0.4309
      6 N1          1.0808    2.4665    0.0050 N.am      1 <0>        -0.4896
      7 C4         -0.0211    1.7077    0.0114 C.2       1 <0>         0.5369
      8 S1          0.0021   -0.0041    0.0020 S.2       1 <0>        -0.5257
      9 N2         -1.1494    2.4403    0.0204 N.pl3     1 <0>        -0.6582
     10 C5          2.3842    1.9591   -0.0109 C.ar      1 <0>         0.1185
     11 C6          3.0198    1.7135   -1.2084 C.ar      1 <0>        -0.0674
     12 C7          4.3165    1.2087   -1.2354 C.ar      1 <0>        -0.1140
     13 C8          4.9922    0.9447   -0.0832 C.ar      1 <0>        -0.0759
     14 C9          4.3798    1.1818    1.1590 C.ar      1 <0>        -0.0477
     15 C10         3.0616    1.6998    1.1989 C.ar      1 <0>        -0.0214
     16 C11         2.4531    1.9412    2.4408 C.ar      1 <0>        -0.1102
     17 C12         3.1370    1.6797    3.5886 C.ar      1 <0>        -0.0984
     18 C13         4.4352    1.1746    3.5504 C.ar      1 <0>        -0.1149
     19 C14         5.0530    0.9193    2.3649 C.ar      1 <0>        -0.0955
     20 H2         -0.9319    4.0305   -2.1081 H         1 <0>         0.0719
     21 H3         -2.3392    4.6154   -1.1885 H         1 <0>         0.0882
     22 H4         -0.8480    5.5856   -1.2462 H         1 <0>         0.0928
     23 H5         -2.0591    2.1035    0.0221 H         1 <0>         0.4559
     24 H6          2.5058    1.9147   -2.1367 H         1 <0>         0.1284
     25 H7          4.7947    1.0236   -2.1859 H         1 <0>         0.1371
     26 H8          5.9979    0.5532   -0.1240 H         1 <0>         0.1377
     27 H9          1.4476    2.3328    2.4854 H         1 <0>         0.1113
     28 H10         2.6666    1.8667    4.5426 H         1 <0>         0.1263
     29 H11         4.9562    0.9760    4.4754 H         1 <0>         0.1287
     30 H12         6.0593    0.5275    2.3505 H         1 <0>         0.1345
@<TRIPOS>BOND
     1    1    2 1
     2    1   20 1
     3    1   21 1
     4    1   22 1
     5    2    3 1
     6    2    9 1
     7    2    4 1
     8    4    5 2
     9    4    6 am
    10    6    7 1
    11    6   10 1
    12    7    8 2
    13    7    9 1
    14    9   23 1
    15   10   15 ar
    16   10   11 ar
    17   11   12 ar
    18   11   24 1
    19   12   13 ar
    20   12   25 1
    21   13   14 ar
    22   13   26 1
    23   14   19 ar
    24   14   15 ar
    25   15   16 ar
    26   16   17 ar
    27   16   27 1
    28   17   18 ar
    29   17   28 1
    30   18   19 ar
    31   18   29 1
    32   19   30 1
@<TRIPOS>MOLECULE
ZINC36922541
   29    30     0     0     0
SMALL
USER_CHARGES

@<TRIPOS>ATOM
      1 C1         -0.0187    1.5258    0.0104 C.3       1 <0>        -0.1711
      2 C2          0.0021   -0.0041    0.0020 C.3       1 <0>         0.1405
      3 C3          0.7421   -0.5109    1.2415 C.3       1 <0>        -0.1618
      4 N1         -1.3723   -0.5112    0.0124 N.pl3     1 <0>        -0.7341
      5 C4         -2.0771   -0.6478   -1.1895 C.ar      1 <0>         0.2398
      6 C5         -1.4724   -0.3085   -2.3916 C.ar      1 <0>        -0.1888
      7 C6         -2.1700   -0.4445   -3.5820 C.ar      1 <0>         0.1088
      8 C7         -3.4751   -0.9226   -3.5697 C.ar      1 <0>         0.0017
      9 C8         -4.0776   -1.2593   -2.3670 C.ar      1 <0>        -0.0539
     10 C9         -3.3804   -1.1286   -1.1803 C.ar      1 <0>        -0.1122
     11 Cl1        -4.1359   -1.5591    0.3222 Cl        1 <0>        -0.0628
     12 O1         -4.1736   -1.0703   -4.7300 O.3       1 <0>        -0.3059
     13 C10        -3.6722   -0.3741   -5.8761 C.3       1 <0>         0.0214
     14 C11        -2.1573   -0.6062   -5.9546 C.3       1 <0>         0.0200
     15 O2         -1.5640   -0.1037   -4.7525 O.3       1 <0>        -0.3045
     16 H1          1.0039    1.9031    0.0027 H         1 <0>         0.0661
     17 H2         -0.5459    1.8868   -0.8726 H         1 <0>         0.0600
     18 H3         -0.5289    1.8773    0.9072 H         1 <0>         0.0595
     19 H4          0.5123   -0.3556   -0.8948 H         1 <0>         0.0817
     20 H5          0.2319   -0.1594    2.1383 H         1 <0>         0.0614
     21 H6          0.7568   -1.6008    1.2356 H         1 <0>         0.0629
     22 H7          1.7647   -0.1336    1.2338 H         1 <0>         0.0740
     23 H8         -1.7940   -0.7522    0.8520 H         1 <0>         0.4042
     24 H9         -0.4580    0.0621   -2.3998 H         1 <0>         0.1438
     25 H10        -5.0924   -1.6288   -2.3576 H         1 <0>         0.1449
     26 H11        -4.1501   -0.7579   -6.7775 H         1 <0>         0.1232
     27 H12        -3.8761    0.6921   -5.7768 H         1 <0>         0.0771
     28 H13        -1.9531   -1.6730   -6.0472 H         1 <0>         0.0801
     29 H14        -1.7484   -0.0771   -6.8154 H         1 <0>         0.1240
@<TRIPOS>BOND
     1    1    2 1
     2    1   16 1
     3    1   17 1
     4    1   18 1
     5    2    3 1
     6    2    4 1
     7    2   19 1
     8    3   20 1
     9    3   21 1
    10    3   22 1
    11    4    5 1
    12    4   23 1
    13    5   10 ar
    14    5    6 ar
    15    6    7 ar
    16    6   24 1
    17    7   15 1
    18    7    8 ar
    19    8    9 ar
    20    8   12 1
    21    9   10 ar
    22    9   25 1
    23   10   11 1
    24   12   13 1
    25   13   14 1
    26   13   26 1
    27   13   27 1
    28   14   15 1
    29   14   28 1
    30   14   29 1
@<TRIPOS>MOLECULE
ZINC41160980
   34    36     0     0     0
SMALL
USER_CHARGES

@<TRIPOS>ATOM
      1 C1         -0.0187    1.5258    0.0104 C.3       1 <0>        -0.1440
      2 C2          0.0021   -0.0041    0.0020 C.3       1 <0>        -0.0026
      3 C3          0.7182   -0.4975   -1.2568 C.3       1 <0>        -0.1440
      4 C4          0.7309   -0.5033    1.2229 C.2       1 <0>         0.2379
      5 N1          0.2117   -1.2878    2.1630 N.2       1 <0>        -0.5279
      6 C5          1.1177   -1.5353    3.0870 C.2       1 <0>         0.3314
      7 N2          2.2544   -0.8928    2.7341 N.pl3     1 <0>        -0.4792
      8 H1          3.0946   -0.8877    3.2187 H         1 <0>         0.4404
      9 N3          1.9761   -0.2383    1.5230 N.2       1 <0>        -0.3050
     10 C6          0.9258   -2.3675    4.2955 C.ar      1 <0>        -0.0379
     11 C7         -0.3039   -2.9807    4.5368 C.ar      1 <0>        -0.0623
     12 C8         -0.4739   -3.7541    5.6648 C.ar      1 <0>        -0.1082
     13 C9          0.5698   -3.9263    6.5612 C.ar      1 <0>        -0.0735
     14 C10         1.7915   -3.3207    6.3274 C.ar      1 <0>        -0.0976
     15 C11         1.9742   -2.5476    5.1958 C.ar      1 <0>        -0.0845
     16 C12         2.7539   -3.6622    7.4451 C.3       1 <0>        -0.0834
     17 C13         1.8670   -4.1748    8.5994 C.3       1 <0>        -0.1215
     18 C14         0.6299   -4.7158    7.8520 C.3       1 <0>        -0.0877
     19 H2          1.0039    1.9031    0.0027 H         1 <0>         0.0624
     20 H3         -0.5459    1.8868   -0.8726 H         1 <0>         0.0689
     21 H4         -0.5289    1.8773    0.9072 H         1 <0>         0.0565
     22 H5         -1.0205   -0.3814    0.0098 H         1 <0>         0.0990
     23 H6          1.7408   -0.1202   -1.2645 H         1 <0>         0.0624
     24 H7          0.7330   -1.5874   -1.2628 H         1 <0>         0.0565
     25 H8          0.1910   -0.1364   -2.1398 H         1 <0>         0.0689
     26 H9         -1.1202   -2.8494    3.8419 H         1 <0>         0.1425
     27 H10        -1.4259   -4.2286    5.8519 H         1 <0>         0.1314
     28 H11         2.9296   -2.0788    5.0116 H         1 <0>         0.1194
     29 H12         3.4449   -4.4418    7.1242 H         1 <0>         0.0833
     30 H13         3.3032   -2.7735    7.7560 H         1 <0>         0.0774
     31 H14         2.3678   -4.9725    9.1479 H         1 <0>         0.0802
     32 H15         1.5901   -3.3588    9.2669 H         1 <0>         0.0747
     33 H16        -0.2716   -4.5469    8.4409 H         1 <0>         0.0802
     34 H17         0.7507   -5.7782    7.6402 H         1 <0>         0.0856
@<TRIPOS>BOND
     1    1    2 1
     2    1   19 1
     3    1   20 1
     4    1   21 1
     5    2    3 1
     6    2    4 1
     7    2   22 1
     8    3   23 1
     9    3   24 1
    10    3   25 1
    11    4    9 2
    12    4    5 1
    13    5    6 2
    14    6    7 1
    15    6   10 1
    16    7    8 1
    17    7    9 1
    18   10   15 ar
    19   10   11 ar
    20   11   12 ar
    21   11   26 1
    22   12   13 ar
    23   12   27 1
    24   13   18 1
    25   13   14 ar
    26   14   15 ar
    27   14   16 1
    28   15   28 1
    29   16   17 1
    30   16   29 1
    31   16   30 1
    32   17   18 1
    33   17   31 1
    34   17   32 1
    35   18   33 1
    36   18   34 1
@<TRIPOS>MOLECULE
ZINC51699018
   25    26     0     0     0
SMALL
USER_CHARGES

@<TRIPOS>ATOM
      1 C1         -0.0173    1.4248    0.0099 C.3       1 <0>         0.0302
      2 O1          0.0021   -0.0041    0.0020 O.3       1 <0>        -0.3757
      3 C2         -1.2953   -0.6030    0.0112 C.3       1 <0>         0.0926
      4 C3         -1.1560   -2.1035    0.0018 C.2       1 <0>         0.1822
      5 C4          0.0816   -2.6398   -0.0074 C.2       1 <0>        -0.2726
      6 C5          0.2459   -4.0453   -0.0164 C.2       1 <0>         0.4126
      7 O2          1.3567   -4.5500   -0.0244 O.2       1 <0>        -0.4628
      8 C6         -0.9682   -4.8785   -0.0152 C.ar      1 <0>        -0.1973
      9 C7         -2.2206   -4.2384   -0.0053 C.ar      1 <0>         0.2264
     10 N1         -2.2788   -2.8622    0.0084 N.pl3     1 <0>        -0.6050
     11 H1         -3.1449   -2.4254    0.0191 H         1 <0>         0.4212
     12 C8         -3.3803   -5.0058   -0.0041 C.ar      1 <0>        -0.1678
     13 C9         -3.2930   -6.3825   -0.0125 C.ar      1 <0>         0.0372
     14 C10        -2.0564   -7.0145   -0.0222 C.ar      1 <0>        -0.1487
     15 C11        -0.8948   -6.2727   -0.0232 C.ar      1 <0>         0.0586
     16 Cl1         0.6491   -7.0665   -0.0355 Cl        1 <0>        -0.0105
     17 Cl2        -4.7443   -7.3351   -0.0103 Cl        1 <0>        -0.0402
     18 H2          1.0053    1.8021    0.0021 H         1 <0>         0.0959
     19 H3         -0.5445    1.7859   -0.8732 H         1 <0>         0.0473
     20 H4         -0.5275    1.7763    0.9067 H         1 <0>         0.0473
     21 H5         -1.8320   -0.2936    0.9080 H         1 <0>         0.0802
     22 H6         -1.8490   -0.2840   -0.8718 H         1 <0>         0.0801
     23 H7          0.9484   -1.9956   -0.0083 H         1 <0>         0.1653
     24 H8         -4.3473   -4.5250    0.0038 H         1 <0>         0.1507
     25 H9         -2.0047   -8.0933   -0.0287 H         1 <0>         0.1529
@<TRIPOS>BOND
     1    1    2 1
     2    1   18 1
     3    1   19 1
     4    1   20 1
     5    2    3 1
     6    3    4 1
     7    3   21 1
     8    3   22 1
     9    4   10 1
    10    4    5 2
    11    5    6 1
    12    5   23 1
    13    6    7 2
    14    6    8 1
    15    8   15 ar
    16    8    9 ar
    17    9   10 1
    18    9   12 ar
    19   10   11 1
    20   12   13 ar
    21   12   24 1
    22   13   14 ar
    23   13   17 1
    24   14   15 ar
    25   14   25 1
    26   15   16 1
@<TRIPOS>MOLECULE
ZINC62752939
   42    43     0     0     0
SMALL
USER_CHARGES

@<TRIPOS>ATOM
      1 C1          6.9141    0.4653    3.1839 C.3       1 <0>        -0.1482
      2 C2          5.6020    0.4574    2.3970 C.3       1 <0>        -0.1008
      3 H1          5.0169    1.3398    2.6563 H         1 <0>         0.0783
      4 C3          5.9058    0.4682    0.8961 C.3       1 <0>        -0.1339
      5 C4          4.5895    0.3811    0.1183 C.3       1 <0>        -0.1372
      6 C5          3.8319   -0.8771    0.5476 C.3       1 <0>        -0.0191
      7 N1          3.5485   -0.8149    1.9865 N.4       1 <0>        -0.3683
      8 C6          4.8064   -0.8031    2.7428 C.3       1 <0>        -0.0012
      9 H2          5.3928   -1.6847    2.4842 H         1 <0>         0.1837
     10 C7          4.5007   -0.8173    4.2419 C.3       1 <0>        -0.2100
     11 C8          2.7541   -1.9867    2.3787 C.3       1 <0>         0.0527
     12 H3          1.7123   -1.8293    2.0995 H         1 <0>         0.1100
     13 C9          2.8519   -2.1856    3.8925 C.3       1 <0>        -0.2191
     14 C10         2.0245   -3.4061    4.3011 C.3       1 <0>        -0.1049
     15 C11         2.5616   -4.6484    3.5876 C.3       1 <0>        -0.1309
     16 C12         2.4638   -4.4494    2.0737 C.3       1 <0>        -0.0919
     17 C13         3.2912   -3.2290    1.6652 C.3       1 <0>        -0.1843
     18 H4          3.2215   -3.0872    0.5867 H         1 <0>         0.0815
     19 C14         4.7316   -3.4466    2.0512 C.2       1 <0>         0.4942
     20 O1          5.5571   -3.7200    1.1967 O.co2     1 <0>        -0.6662
     21 O2          5.0714   -3.3491    3.2181 O.co2     1 <0>        -0.6623
     22 H5          7.4988   -0.4172    2.9243 H         1 <0>         0.0692
     23 H6          7.4811    1.3626    2.9360 H         1 <0>         0.0657
     24 H7          6.6973    0.4561    4.2521 H         1 <0>         0.0685
     25 H8          6.4228    1.3917    0.6355 H         1 <0>         0.0842
     26 H9          6.5345   -0.3862    0.6454 H         1 <0>         0.0849
     27 H10         3.9827    1.2614    0.3301 H         1 <0>         0.0774
     28 H11         4.8006    0.3321   -0.9500 H         1 <0>         0.1041
     29 H12         2.8943   -0.9423   -0.0044 H         1 <0>         0.1174
     30 H13         4.4395   -1.7568    0.3352 H         1 <0>         0.1455
     31 H14         3.4374   -0.6347    4.3976 H         1 <0>         0.1011
     32 H15         4.7673   -1.7888    4.6579 H         1 <0>         0.1268
     33 H16         5.0796   -0.0383    4.7381 H         1 <0>         0.0642
     34 H17         3.8938   -2.3430    4.1717 H         1 <0>         0.1984
     35 H18         2.4693   -1.3006    4.4008 H         1 <0>         0.0735
     36 H19         2.0942   -3.5478    5.3795 H         1 <0>         0.0696
     37 H20         0.9827   -3.2487    4.0219 H         1 <0>         0.0480
     38 H21         3.6035   -4.8058    3.8668 H         1 <0>         0.0937
     39 H22         1.9722   -5.5178    3.8786 H         1 <0>         0.0568
     40 H23         2.8464   -5.3345    1.5655 H         1 <0>         0.0712
     41 H24         1.4220   -4.2920    1.7946 H         1 <0>         0.0562
     42 H25         3.0279    0.0252    2.1897 H         1 <0>         0.4016
@<TRIPOS>BOND
     1    1    2 1
     2    1   22 1
     3    1   23 1
     4    1   24 1
     5    2    3 1
     6    2    8 1
     7    2    4 1
     8    4    5 1
     9    4   25 1
    10    4   26 1
    11    5    6 1
    12    5   27 1
    13    5   28 1
    14    6    7 1
    15    6   29 1
    16    6   30 1
    17    7    8 1
    18    7   11 1
    19    7   42 1
    20    8    9 1
    21    8   10 1
    22   10   31 1
    23   10   32 1
    24   10   33 1
    25   11   12 1
    26   11   17 1
    27   11   13 1
    28   13   14 1
    29   13   34 1
    30   13   35 1
    31   14   15 1
    32   14   36 1
    33   14   37 1
    34   15   16 1
    35   15   38 1
    36   15   39 1
    37   16   17 1
    38   16   40 1
    39   16   41 1
    40   17   18 1
    41   17   19 1
    42   19   20 2
    43   19   21 1
@<TRIPOS>MOLECULE
ZINC01587120
   31    32     0     0     0
SMALL
USER_CHARGES
2-chloro-5-(2,4,5-trimethyl-1,3-dioxolan-2-yl)-phenol
@<TRIPOS>ATOM
      1 C1         -0.0127    1.0858    0.0080 C.3       1 <0>        -0.1519
      2 C2         -0.7288    1.5792    1.2668 C.3       1 <0>         0.0503
      3 H1         -0.8023    2.6668    1.2653 H         1 <0>         0.0875
      4 C3         -0.0019    1.0814    2.5410 C.3       1 <0>         0.0466
      5 H2          0.4034    0.0804    2.3931 H         1 <0>         0.0881
      6 O1         -1.0793    1.0676    3.5080 O.3       1 <0>        -0.3632
      7 C4         -2.2374    0.6564    2.7621 C.3       1 <0>         0.3019
      8 O2         -2.0341    0.9770    1.3796 O.3       1 <0>        -0.3689
      9 C5         -2.4364   -0.8532    2.9126 C.3       1 <0>        -0.1662
     10 C6         -3.4545    1.3811    3.2764 C.ar      1 <0>        -0.0827
     11 C7         -3.5203    1.7651    4.6031 C.ar      1 <0>        -0.0874
     12 C8         -4.6353    2.4301    5.0784 C.ar      1 <0>        -0.0999
     13 C9         -5.6873    2.7133    4.2272 C.ar      1 <0>        -0.0572
     14 C10        -5.6231    2.3288    2.8950 C.ar      1 <0>         0.1127
     15 C11        -4.5007    1.6662    2.4204 C.ar      1 <0>        -0.1034
     16 O3         -6.6558    2.6058    2.0558 O.3       1 <0>        -0.4848
     17 Cl1        -7.0873    3.5485    4.8241 Cl        1 <0>        -0.0543
     18 C12         1.0984    2.0581    2.9608 C.3       1 <0>        -0.1470
     19 H3          0.0021   -0.0041    0.0020 H         1 <0>         0.0669
     20 H4          1.0099    1.4631    0.0003 H         1 <0>         0.0763
     21 H5         -0.5399    1.4469   -0.8751 H         1 <0>         0.0705
     22 H6         -2.5907   -1.0963    3.9639 H         1 <0>         0.0793
     23 H7         -3.3076   -1.1640    2.3361 H         1 <0>         0.0782
     24 H8         -1.5526   -1.3746    2.5450 H         1 <0>         0.0695
     25 H9         -2.6994    1.5446    5.2694 H         1 <0>         0.1412
     26 H10        -4.6843    2.7289    6.1150 H         1 <0>         0.1412
     27 H11        -4.4464    1.3699    1.3832 H         1 <0>         0.1447
     28 H12        -6.5804    3.4594    1.6078 H         1 <0>         0.3939
     29 H13         0.6586    3.0337    3.1678 H         1 <0>         0.0685
     30 H14         1.5929    1.6848    3.8576 H         1 <0>         0.0714
     31 H15         1.8277    2.1516    2.1561 H         1 <0>         0.0781
@<TRIPOS>BOND
     1    1    2 1
     2    1   19 1
     3    1   20 1
     4    1   21 1
     5    2    3 1
     6    2    8 1
     7    2    4 1
     8    4    5 1
     9    4    6 1
    10    4   18 1
    11    6    7 1
    12    7    8 1
    13    7    9 1
    14    7   10 1
    15    9   22 1
    16    9   23 1
    17    9   24 1
    18   10   15 ar
    19   10   11 ar
    20   11   12 ar
    21   11   25 1
    22   12   13 ar
    23   12   26 1
    24   13   14 ar
    25   13   17 1
    26   14   15 ar
    27   14   16 1
    28   15   27 1
    29   16   28 1
    30   18   29 1
    31   18   30 1
    32   18   31 1
@<TRIPOS>MOLECULE
ZINC37089107
   32    33     0     0     0
SMALL
USER_CHARGES

@<TRIPOS>ATOM
      1 C1         -0.0184    1.5028    0.0103 C.3       1 <0>        -0.1110
      2 C2          0.0021   -0.0041    0.0020 C.ar      1 <0>        -0.1694
      3 C3          0.0058   -0.6902   -1.2067 C.ar      1 <0>         0.2459
      4 C4          0.0246   -2.0764   -1.2175 C.ar      1 <0>        -0.1610
      5 C5          0.0402   -2.7796   -0.0123 C.ar      1 <0>         0.0469
      6 C6          0.0368   -2.0828    1.1975 C.ar      1 <0>        -0.1617
      7 C7          0.0229   -0.7003    1.1982 C.ar      1 <0>         0.1484
      8 F1          0.0244   -0.0272    2.3695 F         1 <0>        -0.1280
      9 C8          0.0592   -4.2115   -0.0164 C.1       1 <0>         0.2517
     10 N1          0.0742   -5.3474   -0.0196 N.1       1 <0>        -0.4017
     11 N2         -0.0099    0.0173   -2.4112 N.pl3     1 <0>        -0.7323
     12 C9         -0.0060   -0.7056   -3.6854 C.3       1 <0>         0.1465
     13 C10         1.4358   -1.0381   -4.0815 C.3       1 <0>        -0.1735
     14 C11         1.4356   -1.7229   -5.4507 C.3       1 <0>         0.0608
     15 O1          0.8106   -0.8674   -6.4097 O.3       1 <0>        -0.3798
     16 C12        -0.5539   -0.5607   -6.1162 C.3       1 <0>         0.0632
     17 C13        -0.6336    0.1709   -4.7737 C.3       1 <0>        -0.1638
     18 H1          1.0042    1.8801    0.0026 H         1 <0>         0.0759
     19 H2         -0.5455    1.8639   -0.8728 H         1 <0>         0.0673
     20 H3         -0.5286    1.8543    0.9071 H         1 <0>         0.0762
     21 H4          0.0267   -2.6106   -2.1562 H         1 <0>         0.1375
     22 H5          0.0489   -2.6234    2.1323 H         1 <0>         0.1436
     23 H6         -0.0234    0.9872   -2.4039 H         1 <0>         0.4053
     24 H7         -0.5794   -1.6270   -3.5836 H         1 <0>         0.0846
     25 H8          2.0203   -0.1195   -4.1338 H         1 <0>         0.0786
     26 H9          1.8723   -1.7070   -3.3398 H         1 <0>         0.0796
     27 H10         2.4623   -1.9234   -5.7570 H         1 <0>         0.0991
     28 H11         0.8851   -2.6616   -5.3876 H         1 <0>         0.0534
     29 H12        -0.9604    0.0761   -6.9019 H         1 <0>         0.1008
     30 H13        -1.1305   -1.4841   -6.0618 H         1 <0>         0.0549
     31 H14        -1.6772    0.3666   -4.5270 H         1 <0>         0.0828
     32 H15        -0.0910    1.1138   -4.8399 H         1 <0>         0.0794
@<TRIPOS>BOND
     1    1    2 1
     2    1   18 1
     3    1   19 1
     4    1   20 1
     5    2    7 ar
     6    2    3 ar
     7    3    4 ar
     8    3   11 1
     9    4    5 ar
    10    4   21 1
    11    5    6 ar
    12    5    9 1
    13    6    7 ar
    14    6   22 1
    15    7    8 1
    16    9   10 3
    17   11   12 1
    18   11   23 1
    19   12   17 1
    20   12   13 1
    21   12   24 1
    22   13   14 1
    23   13   25 1
    24   13   26 1
    25   14   15 1
    26   14   27 1
    27   14   28 1
    28   15   16 1
    29   16   17 1
    30   16   29 1
    31   16   30 1
    32   17   31 1
    33   17   32 1
@<TRIPOS>MOLECULE
ZINC41057732
   25    27     0     0     0
SMALL
USER_CHARGES

@<TRIPOS>ATOM
      1 C1         -0.0179    1.3780    0.0124 C.ar      1 <0>        -0.0763
      2 C2          0.0006   -0.0048   -0.0084 C.ar      1 <0>        -0.0982
      3 C3          1.2041   -0.6820   -0.0250 C.ar      1 <0>         0.0078
      4 C4          2.4038    0.0325   -0.0211 C.ar      1 <0>        -0.0149
      5 C5          2.3783    1.4267   -0.0005 C.ar      1 <0>        -0.0801
      6 C6          1.1682    2.0921    0.0164 C.ar      1 <0>        -0.0340
      7 Cl1         1.1343    3.8276    0.0426 Cl        1 <0>        -0.0479
      8 C7          3.6967   -0.6866   -0.0382 C.2       1 <0>         0.3188
      9 N1          4.9218   -0.1217   -0.1372 N.pl3     1 <0>        -0.4733
     10 H1          5.1222    0.8246   -0.2102 H         1 <0>         0.4415
     11 N2          5.8455   -1.1792   -0.1125 N.2       1 <0>        -0.2997
     12 C8          5.1568   -2.2858   -0.0040 C.2       1 <0>         0.2616
     13 N3          3.8607   -1.9913    0.0459 N.2       1 <0>        -0.4966
     14 C9          5.7396   -3.6740    0.0599 C.3       1 <0>        -0.0763
     15 C10         7.2585   -3.7969    0.1971 C.3       1 <0>        -0.1593
     16 C11         6.5797   -4.1429   -1.1298 C.3       1 <0>        -0.1568
     17 Cl2         1.2254   -2.4176   -0.0499 Cl        1 <0>        -0.0095
     18 H2         -0.9617    1.9030    0.0210 H         1 <0>         0.1513
     19 H3         -0.9280   -0.5562   -0.0114 H         1 <0>         0.1544
     20 H4          3.3029    1.9849    0.0029 H         1 <0>         0.1415
     21 H5          5.1263   -4.4185    0.5674 H         1 <0>         0.1334
     22 H6          7.8362   -2.8736    0.2411 H         1 <0>         0.1037
     23 H7          7.6447   -4.6223    0.7951 H         1 <0>         0.1056
     24 H8          6.5194   -5.1959   -1.4046 H         1 <0>         0.1066
     25 H9          6.7109   -3.4473   -1.9586 H         1 <0>         0.0966
@<TRIPOS>BOND
     1    1    6 ar
     2    1    2 ar
     3    1   18 1
     4    2    3 ar
     5    2   19 1
     6    3    4 ar
     7    3   17 1
     8    4    5 ar
     9    4    8 1
    10    5    6 ar
    11    5   20 1
    12    6    7 1
    13    8   13 2
    14    8    9 1
    15    9   10 1
    16    9   11 1
    17   11   12 2
    18   12   13 1
    19   12   14 1
    20   14   16 1
    21   14   15 1
    22   14   21 1
    23   15   16 1
    24   15   22 1
    25   15   23 1
    26   16   24 1
    27   16   25 1
@<TRIPOS>MOLECULE
ZINC49825553
   36    37     0     0     0
SMALL
USER_CHARGES

@<TRIPOS>ATOM
      1 C1         -0.0187    1.5258    0.0104 C.3       1 <0>        -0.1460
      2 C2          0.0021   -0.0041    0.0020 C.3       1 <0>        -0.0618
      3 C3          0.7421   -0.5109    1.2415 C.3       1 <0>        -0.1491
      4 C4         -1.4333   -0.5336    0.0129 C.3       1 <0>        -0.1462
      5 C5          0.7182   -0.4975   -1.2568 C.3       1 <0>        -0.0799
      6 H1          0.1942   -0.1386   -2.1426 H         1 <0>         0.0776
      7 C6          0.7562   -2.0307   -1.2634 C.3       1 <0>        -0.1156
      8 C7          1.2706   -2.4888   -2.6254 C.3       1 <0>        -0.0998
      9 C8          2.5575   -1.7829   -2.9775 C.2       1 <0>         0.2062
     10 C9          2.9515   -0.6410   -2.3665 C.2       1 <0>        -0.2042
     11 C10         4.1477   -0.0153   -2.7382 C.2       1 <0>         0.0511
     12 C11         4.9406   -0.5757   -3.7392 C.2       1 <0>        -0.3137
     13 C12         4.4763   -1.8176   -4.3651 C.2       1 <0>         0.5303
     14 O1          5.1315   -2.3525   -5.2422 O.2       1 <0>        -0.5103
     15 N1          3.3165   -2.3554   -3.9543 N.am      1 <0>        -0.6127
     16 H2          3.0089   -3.1781   -4.3659 H         1 <0>         0.4150
     17 C13         6.1936    0.0548   -4.1515 C.2       1 <0>         0.3833
     18 O2          6.8684   -0.4500   -5.0250 O.2       1 <0>        -0.4396
     19 C14         2.1562    0.0149   -1.2658 C.3       1 <0>        -0.0616
     20 H3          1.0039    1.9031    0.0027 H         1 <0>         0.0582
     21 H4         -0.5459    1.8868   -0.8726 H         1 <0>         0.0552
     22 H5         -0.5289    1.8773    0.9072 H         1 <0>         0.0557
     23 H6          0.2319   -0.1594    2.1383 H         1 <0>         0.0552
     24 H7          0.7568   -1.6008    1.2356 H         1 <0>         0.0577
     25 H8          1.7647   -0.1336    1.2338 H         1 <0>         0.0594
     26 H9         -1.9605   -0.1726   -0.8702 H         1 <0>         0.0552
     27 H10        -1.4185   -1.6235    0.0069 H         1 <0>         0.0583
     28 H11        -1.9435   -0.1821    0.9097 H         1 <0>         0.0561
     29 H12         1.4251   -2.3854   -0.4793 H         1 <0>         0.0758
     30 H13        -0.2468   -2.4241   -1.0978 H         1 <0>         0.0843
     31 H14         1.4470   -3.5641   -2.5989 H         1 <0>         0.0909
     32 H15         0.5208   -2.2677   -3.3849 H         1 <0>         0.0984
     33 H16         4.4552    0.8985   -2.2516 H         1 <0>         0.1459
     34 H17         6.5188    0.9698   -3.6788 H         1 <0>         0.1081
     35 H18         2.1515    1.0939   -1.4198 H         1 <0>         0.0799
     36 H19         2.6222   -0.2076   -0.3059 H         1 <0>         0.0826
@<TRIPOS>BOND
     1    1    2 1
     2    1   20 1
     3    1   21 1
     4    1   22 1
     5    2    3 1
     6    2    4 1
     7    2    5 1
     8    3   23 1
     9    3   24 1
    10    3   25 1
    11    4   26 1
    12    4   27 1
    13    4   28 1
    14    5    6 1
    15    5   19 1
    16    5    7 1
    17    7    8 1
    18    7   29 1
    19    7   30 1
    20    8    9 1
    21    8   31 1
    22    8   32 1
    23    9   15 1
    24    9   10 2
    25   10   11 1
    26   10   19 1
    27   11   12 2
    28   11   33 1
    29   12   13 1
    30   12   17 1
    31   13   14 2
    32   13   15 am
    33   15   16 1
    34   17   18 2
    35   17   34 1
    36   19   35 1
    37   19   36 1
@<TRIPOS>MOLECULE
ZINC61416777
   33    35     0     0     0
SMALL
USER_CHARGES

@<TRIPOS>ATOM
      1 C1         -0.0184    1.5028    0.0103 C.3       1 <0>        -0.1182
      2 C2          0.0021   -0.0041    0.0020 C.ar      1 <0>        -0.0812
      3 C3          0.0057   -0.6887   -1.1989 C.ar      1 <0>        -0.1173
      4 C4          0.0245   -2.0709   -1.2065 C.ar      1 <0>        -0.1012
      5 C5          0.0400   -2.7685   -0.0132 C.ar      1 <0>        -0.1224
      6 C6          0.0373   -2.0839    1.1877 C.ar      1 <0>        -0.1049
      7 C7          0.0229   -0.7016    1.1953 C.ar      1 <0>        -0.1166
      8 C8          0.0595   -4.2753   -0.0215 C.3       1 <0>         0.1906
      9 H1          0.4932   -4.6279   -0.9572 H         1 <0>         0.1217
     10 C9         -1.3486   -4.7966    0.1073 C.ar      1 <0>        -0.0898
     11 C10        -1.9542   -4.8362    1.3625 C.ar      1 <0>        -0.0895
     12 C11        -3.2242   -5.3006    1.5129 C.ar      1 <0>        -0.0755
     13 C12        -3.9403   -5.7481    0.3887 C.ar      1 <0>         0.0782
     14 C13        -3.3244   -5.7078   -0.8878 C.ar      1 <0>         0.0819
     15 C14        -2.0122   -5.2163   -1.0038 C.ar      1 <0>        -0.0696
     16 N1         -4.0005   -6.1321   -1.9606 N.ar      1 <0>        -0.4243
     17 C15        -5.2270   -6.5814   -1.8213 C.ar      1 <0>         0.0781
     18 C16        -5.8336   -6.6207   -0.5643 C.ar      1 <0>         0.0770
     19 N2         -5.1900   -6.2095    0.5044 N.ar      1 <0>        -0.4242
     20 O1          0.8444   -4.7476    1.0752 O.3       1 <0>        -0.5423
     21 H2          1.0042    1.8801    0.0026 H         1 <0>         0.0728
     22 H3         -0.5455    1.8639   -0.8728 H         1 <0>         0.0676
     23 H4         -0.5286    1.8543    0.9071 H         1 <0>         0.0676
     24 H5         -0.0064   -0.1436   -2.1312 H         1 <0>         0.1249
     25 H6          0.0266   -2.6057   -2.1448 H         1 <0>         0.1248
     26 H7          0.0491   -2.6289    2.1200 H         1 <0>         0.1196
     27 H8          0.0245   -0.1667    2.1335 H         1 <0>         0.1247
     28 H9         -1.4069   -4.4936    2.2282 H         1 <0>         0.1327
     29 H10        -3.6801   -5.3257    2.4916 H         1 <0>         0.1435
     30 H11        -1.5318   -5.1755   -1.9702 H         1 <0>         0.1422
     31 H12        -5.7722   -6.9238   -2.6885 H         1 <0>         0.1775
     32 H13        -6.8430   -6.9932   -0.4697 H         1 <0>         0.1774
     33 H14         0.5160   -4.4712    1.9418 H         1 <0>         0.3743
@<TRIPOS>BOND
     1    1    2 1
     2    1   21 1
     3    1   22 1
     4    1   23 1
     5    2    7 ar
     6    2    3 ar
     7    3    4 ar
     8    3   24 1
     9    4    5 ar
    10    4   25 1
    11    5    6 ar
    12    5    8 1
    13    6    7 ar
    14    6   26 1
    15    7   27 1
    16    8    9 1
    17    8   10 1
    18    8   20 1
    19   10   15 ar
    20   10   11 ar
    21   11   12 ar
    22   11   28 1
    23   12   13 ar
    24   12   29 1
    25   13   19 ar
    26   13   14 ar
    27   14   15 ar
    28   14   16 ar
    29   15   30 1
    30   16   17 ar
    31   17   18 ar
    32   17   31 1
    33   18   19 ar
    34   18   32 1
    35   20   33 1
@<TRIPOS>MOLECULE
ZINC00305808
   37    40     0     0     0
SMALL
USER_CHARGES
aminoBLAHone
@<TRIPOS>ATOM
      1 C1          1.1516    3.1694    0.0070 C.ar      1 <0>        -0.0953
      2 C2          1.1716    1.7859    0.0005 C.ar      1 <0>        -0.1324
      3 C3         -0.0126    1.0758    0.0080 C.ar      1 <0>        -0.0684
      4 C4         -1.2252    1.7588    0.0174 C.ar      1 <0>        -0.0608
      5 C5         -1.2414    3.1549    0.0261 C.ar      1 <0>        -0.0479
      6 C6         -0.0517    3.8524    0.0193 C.ar      1 <0>        -0.1245
      7 C7         -2.5571    3.8884    0.0337 C.3       1 <0>        -0.0719
      8 C8         -3.5873    3.1249   -0.7958 C.3       1 <0>         0.0123
      9 C9         -3.2194    3.2066   -2.2859 C.3       1 <0>        -0.1068
     10 C10        -4.3948    3.9166   -2.9898 C.3       1 <0>        -0.1207
     11 C11        -5.0744    4.7344   -1.8633 C.3       1 <0>        -0.1173
     12 C12        -4.9697    3.7872   -0.6416 C.3       1 <0>        -0.1826
     13 C13        -3.6594    1.6895   -0.3634 C.2       1 <0>        -0.2204
     14 C14        -2.5123    1.0279    0.0420 C.2       1 <0>         0.2146
     15 N1         -2.5852   -0.2519    0.4345 N.2       1 <0>        -0.5103
     16 C15        -3.7243   -0.8906    0.4348 C.2       1 <0>         0.3388
     17 N2         -4.8720   -0.3004    0.0452 N.am      1 <0>        -0.3577
     18 C16        -4.8757    0.9891   -0.3582 C.2       1 <0>         0.5273
     19 O1         -5.9110    1.5314   -0.7089 O.2       1 <0>        -0.4991
     20 N3         -6.0388   -1.0105    0.0587 N.3       1 <0>        -0.5995
     21 H1          2.0809    3.7196    0.0020 H         1 <0>         0.1267
     22 H2          2.1151    1.2605   -0.0109 H         1 <0>         0.1282
     23 H3          0.0021   -0.0041    0.0020 H         1 <0>         0.1340
     24 H4         -0.0592    4.9324    0.0234 H         1 <0>         0.1288
     25 H5         -2.9145    3.9792    1.0595 H         1 <0>         0.0803
     26 H6         -2.4187    4.8837   -0.3885 H         1 <0>         0.0884
     27 H7         -2.3037    3.7839   -2.4135 H         1 <0>         0.0682
     28 H8         -3.0898    2.2043   -2.6942 H         1 <0>         0.0588
     29 H9         -5.0898    3.1856   -3.4030 H         1 <0>         0.0650
     30 H10        -4.0284    4.5790   -3.7741 H         1 <0>         0.0626
     31 H11        -6.1174    4.9357   -2.1076 H         1 <0>         0.0639
     32 H12        -4.5362    5.6640   -1.6785 H         1 <0>         0.0580
     33 H13        -5.7585    3.0357   -0.6727 H         1 <0>         0.1547
     34 H14        -5.0191    4.3556    0.2872 H         1 <0>         0.0543
     35 H15        -3.7475   -1.9214    0.7561 H         1 <0>         0.2074
     36 H16        -5.8841   -1.9541    0.3809 H         1 <0>         0.3717
     37 H17        -6.7378   -0.5469    0.6195 H         1 <0>         0.3716
@<TRIPOS>BOND
     1    1    6 ar
     2    1    2 ar
     3    1   21 1
     4    2    3 ar
     5    2   22 1
     6    3    4 ar
     7    3   23 1
     8    4   14 1
     9    4    5 ar
    10    5    6 ar
    11    5    7 1
    12    6   24 1
    13    7    8 1
    14    7   25 1
    15    7   26 1
    16    8   12 1
    17    8    9 1
    18    8   13 1
    19    9   10 1
    20    9   27 1
    21    9   28 1
    22   10   11 1
    23   10   29 1
    24   10   30 1
    25   11   12 1
    26   11   31 1
    27   11   32 1
    28   12   33 1
    29   12   34 1
    30   13   18 1
    31   13   14 2
    32   14   15 1
    33   15   16 2
    34   16   17 1
    35   16   35 1
    36   17   18 am
    37   17   20 1
    38   18   19 2
    39   20   36 1
    40   20   37 1
@<TRIPOS>MOLECULE
ZINC34954617
   38    39     0     0     0
SMALL
USER_CHARGES

@<TRIPOS>ATOM
      1 C1         -0.0341    1.5124   -0.1977 C.3       1 <0>        -0.1812
      2 C2          0.0021   -0.0041    0.0020 C.3       1 <0>        -0.1272
      3 C3         -1.4264   -0.5347    0.1385 C.3       1 <0>        -0.0658
      4 H1         -2.0303   -0.1760   -0.6950 H         1 <0>         0.1114
      5 C4         -1.4071   -2.0645    0.1360 C.3       1 <0>        -0.0391
      6 H2         -2.4167   -2.4044    0.3669 H         1 <0>         0.0858
      7 C5         -1.0365   -2.6210   -1.2187 C.3       1 <0>        -0.1063
      8 C6          0.4361   -3.0201   -1.2870 C.3       1 <0>        -0.0942
      9 H3          1.0622   -2.1459   -1.1087 H         1 <0>         0.0812
     10 C7          0.7013   -4.0756   -0.2046 C.3       1 <0>        -0.0871
     11 C8          0.4064   -3.4472    1.1327 C.2       1 <0>        -0.1347
     12 C9         -0.5103   -2.5265    1.2459 C.2       1 <0>        -0.0521
     13 C10        -0.6697   -1.8552    2.5630 C.2       1 <0>        -0.1303
     14 C11        -1.3714   -0.6965    2.6379 C.2       1 <0>         0.2413
     15 C12        -2.0303   -0.0465    1.4557 C.3       1 <0>         0.2060
     16 C13        -1.8619    1.4128    1.5496 C.1       1 <0>         0.2040
     17 N1         -1.7319    2.5390    1.6220 N.1       1 <0>        -0.3574
     18 C14        -3.4675   -0.3644    1.4722 C.1       1 <0>         0.1981
     19 N2         -4.5766   -0.6097    1.4849 N.1       1 <0>        -0.3560
     20 N3         -1.4848   -0.0870    3.8559 N.pl3     1 <0>        -0.8424
     21 C15        -0.0888   -2.4264    3.7407 C.1       1 <0>         0.2621
     22 N4          0.3721   -2.8794    4.6749 N.1       1 <0>        -0.4255
     23 C16         0.7483   -3.6050   -2.6659 C.3       1 <0>        -0.1494
     24 H4          0.8604    1.8297   -0.7336 H         1 <0>         0.0645
     25 H5         -0.9184    1.7818   -0.7752 H         1 <0>         0.0576
     26 H6         -0.0701    2.0060    0.7734 H         1 <0>         0.0627
     27 H7          0.4831   -0.4723   -0.8568 H         1 <0>         0.0923
     28 H8          0.5646   -0.2382    0.9058 H         1 <0>         0.0819
     29 H9         -1.6515   -3.4976   -1.4226 H         1 <0>         0.0736
     30 H10        -1.2350   -1.8656   -1.9790 H         1 <0>         0.0754
     31 H11         0.0499   -4.9356   -0.3601 H         1 <0>         0.0789
     32 H12         1.7443   -4.3899   -0.2429 H         1 <0>         0.0753
     33 H13         0.9704   -3.7557    2.0006 H         1 <0>         0.1102
     34 H14        -1.0693   -0.4840    4.6374 H         1 <0>         0.4129
     35 H15        -1.9807    0.7425    3.9389 H         1 <0>         0.4046
     36 H16         0.5402   -2.8588   -3.4327 H         1 <0>         0.0566
     37 H17         1.7998   -3.8886   -2.7107 H         1 <0>         0.0568
     38 H18         0.1273   -4.4844   -2.8367 H         1 <0>         0.0559
@<TRIPOS>BOND
     1    1    2 1
     2    1   24 1
     3    1   25 1
     4    1   26 1
     5    2    3 1
     6    2   27 1
     7    2   28 1
     8    3    4 1
     9    3   15 1
    10    3    5 1
    11    5    6 1
    12    5   12 1
    13    5    7 1
    14    7    8 1
    15    7   29 1
    16    7   30 1
    17    8    9 1
    18    8   10 1
    19    8   23 1
    20   10   11 1
    21   10   31 1
    22   10   32 1
    23   11   12 2
    24   11   33 1
    25   12   13 1
    26   13   14 2
    27   13   21 1
    28   14   15 1
    29   14   20 1
    30   15   16 1
    31   15   18 1
    32   16   17 3
    33   18   19 3
    34   20   34 1
    35   20   35 1
    36   21   22 3
    37   23   36 1
    38   23   37 1
    39   23   38 1
@<TRIPOS>MOLECULE
ZINC39565572
   35    38     0     0     0
SMALL
USER_CHARGES

@<TRIPOS>ATOM
      1 C1         -0.0187    1.5258    0.0104 C.3       1 <0>        -0.1120
      2 C2          1.4167    2.0553   -0.0004 C.3       1 <0>        -0.0807
      3 C3          2.1567    1.5485    1.2391 C.3       1 <0>        -0.1098
      4 C4          2.1775    0.0187    1.2307 C.3       1 <0>        -0.0800
      5 C5          0.7421   -0.5109    1.2415 C.3       1 <0>        -0.1118
      6 C6          0.0021   -0.0041    0.0020 C.3       1 <0>        -0.0825
      7 C7          0.7182   -0.4975   -1.2568 C.3       1 <0>        -0.1036
      8 C8          2.1536    0.0321   -1.2676 C.3       1 <0>        -0.0216
      9 C9          2.1328    1.5619   -1.2592 C.3       1 <0>        -0.1144
     10 C10         2.8936   -0.4747   -0.0281 C.3       1 <0>        -0.1114
     11 C11         2.8697   -0.4613   -2.5264 C.3       1 <0>         0.1596
     12 H1          2.3494   -0.1201   -3.4214 H         1 <0>         0.1640
     13 N1          2.9798   -1.9290   -2.5186 N.2       1 <0>        -0.0651
     14 N2          4.1790   -2.2191   -2.5221 N.2       1 <0>        -0.1310
     15 C12         4.9928   -1.1564   -2.5316 C.2       1 <0>         0.3348
     16 S1          6.7029   -1.2364   -2.5393 S.2       1 <0>        -0.4163
     17 N3          4.2739   -0.0080   -2.5370 N.pl3     1 <0>        -0.3874
     18 N4          4.7397    1.2761   -2.5494 N.3       1 <0>        -0.5454
     19 H2         -0.5289    1.8773    0.9072 H         1 <0>         0.0660
     20 H3         -0.5459    1.8868   -0.8726 H         1 <0>         0.0637
     21 H4          1.4019    3.1452    0.0056 H         1 <0>         0.0756
     22 H5          3.1793    1.9258    1.2314 H         1 <0>         0.0638
     23 H6          1.6465    1.9000    2.1359 H         1 <0>         0.0660
     24 H7          2.7046   -0.3424    2.1137 H         1 <0>         0.0745
     25 H8          0.7568   -1.6008    1.2355 H         1 <0>         0.0649
     26 H9          0.2319   -0.1594    2.1383 H         1 <0>         0.0672
     27 H10        -1.0205   -0.3814    0.0098 H         1 <0>         0.0782
     28 H11         0.7330   -1.5874   -1.2628 H         1 <0>         0.0783
     29 H12         0.1910   -0.1364   -2.1398 H         1 <0>         0.0706
     30 H13         1.6057    1.9230   -2.1423 H         1 <0>         0.0636
     31 H14         3.1554    1.9392   -1.2670 H         1 <0>         0.0956
     32 H15         3.9162   -0.0975   -0.0359 H         1 <0>         0.0666
     33 H16         2.9084   -1.5646   -0.0341 H         1 <0>         0.0634
     34 H17         5.7485    1.2947   -2.5546 H         1 <0>         0.3917
     35 H18         4.3645    1.7893   -3.3329 H         1 <0>         0.3648
@<TRIPOS>BOND
     1    1    6 1
     2    1    2 1
     3    1   19 1
     4    1   20 1
     5    2    9 1
     6    2    3 1
     7    2   21 1
     8    3    4 1
     9    3   22 1
    10    3   23 1
    11    4   10 1
    12    4    5 1
    13    4   24 1
    14    5    6 1
    15    5   25 1
    16    5   26 1
    17    6    7 1
    18    6   27 1
    19    7    8 1
    20    7   28 1
    21    7   29 1
    22    8    9 1
    23    8   10 1
    24    8   11 1
    25    9   30 1
    26    9   31 1
    27   10   32 1
    28   10   33 1
    29   11   12 1
    30   11   17 1
    31   11   13 1
    32   13   14 2
    33   14   15 1
    34   15   16 2
    35   15   17 1
    36   17   18 1
    37   18   34 1
    38   18   35 1
@<TRIPOS>MOLECULE
ZINC52010079
   40    41     0     0     0
SMALL
USER_CHARGES

@<TRIPOS>ATOM
      1 C1         -0.0187    1.5258    0.0104 C.3       1 <0>        -0.1231
      2 C2          1.4167    2.0553   -0.0004 C.3       1 <0>        -0.1257
      3 C3          2.1567    1.5485    1.2391 C.3       1 <0>        -0.0943
      4 C4          2.1775    0.0187    1.2307 C.3       1 <0>         0.0253
      5 C5          0.7421   -0.5109    1.2415 C.3       1 <0>        -0.1051
      6 C6          0.0021   -0.0041    0.0020 C.3       1 <0>        -0.1233
      7 C7          2.8664   -0.4560    0.0196 C.1       1 <0>         0.2120
      8 N1          3.3982   -0.8224   -0.9150 N.1       1 <0>        -0.4069
      9 C8          2.9063   -0.4805    2.4516 C.2       1 <0>         0.5322
     10 O1          3.3641    0.3095    3.2498 O.2       1 <0>        -0.5170
     11 N2          3.0494   -1.8049    2.6564 N.am      1 <0>        -0.7135
     12 C9          3.7580   -2.2902    3.8433 C.3       1 <0>         0.1546
     13 H1          3.5580   -1.6249    4.6832 H         1 <0>         0.0994
     14 C10         5.2618   -2.3198    3.5629 C.3       1 <0>        -0.1301
     15 C11         6.0018   -2.8266    4.8025 C.3       1 <0>        -0.1198
     16 C12         5.5187   -4.2378    5.1433 C.3       1 <0>        -0.1211
     17 C13         4.0149   -4.2082    5.4237 C.3       1 <0>        -0.1493
     18 C14         3.2749   -3.7014    4.1841 C.3       1 <0>         0.0982
     19 H2          3.4750   -4.3667    3.3442 H         1 <0>         0.0602
     20 O2          1.8704   -3.6738    4.4460 O.3       1 <0>        -0.5616
     21 H3         -0.5289    1.8773    0.9072 H         1 <0>         0.0708
     22 H4         -0.5459    1.8868   -0.8726 H         1 <0>         0.0682
     23 H5          1.9269    1.7038   -0.8972 H         1 <0>         0.0607
     24 H6          1.4019    3.1452    0.0056 H         1 <0>         0.0769
     25 H7          3.1793    1.9258    1.2314 H         1 <0>         0.0801
     26 H8          1.6465    1.9000    2.1359 H         1 <0>         0.0944
     27 H9          0.7568   -1.6008    1.2356 H         1 <0>         0.0768
     28 H10         0.2319   -0.1594    2.1383 H         1 <0>         0.0937
     29 H11        -1.0205   -0.3814    0.0098 H         1 <0>         0.0769
     30 H12         0.5123   -0.3556   -0.8948 H         1 <0>         0.0625
     31 H13         2.6833   -2.4368    2.0180 H         1 <0>         0.4014
     32 H14         5.4618   -2.9851    2.7230 H         1 <0>         0.0666
     33 H15         5.6059   -1.3144    3.3201 H         1 <0>         0.0761
     34 H16         7.0731   -2.8477    4.6027 H         1 <0>         0.0707
     35 H17         5.8018   -2.1613    5.6424 H         1 <0>         0.0688
     36 H18         5.7188   -4.9031    4.3034 H         1 <0>         0.0649
     37 H19         6.0459   -4.5988    6.0264 H         1 <0>         0.0705
     38 H20         3.6708   -5.2136    5.6665 H         1 <0>         0.0717
     39 H21         3.8149   -3.5429    6.2636 H         1 <0>         0.0760
     40 H22         1.4950   -4.5364    4.6696 H         1 <0>         0.3812
@<TRIPOS>BOND
     1    1    6 1
     2    1    2 1
     3    1   21 1
     4    1   22 1
     5    2    3 1
     6    2   23 1
     7    2   24 1
     8    3    4 1
     9    3   25 1
    10    3   26 1
    11    4    5 1
    12    4    7 1
    13    4    9 1
    14    5    6 1
    15    5   27 1
    16    5   28 1
    17    6   29 1
    18    6   30 1
    19    7    8 3
    20    9   10 2
    21    9   11 am
    22   11   12 1
    23   11   31 1
    24   12   13 1
    25   12   18 1
    26   12   14 1
    27   14   15 1
    28   14   32 1
    29   14   33 1
    30   15   16 1
    31   15   34 1
    32   15   35 1
    33   16   17 1
    34   16   36 1
    35   16   37 1
    36   17   18 1
    37   17   38 1
    38   17   39 1
    39   18   19 1
    40   18   20 1
    41   20   40 1
@<TRIPOS>MOLECULE
ZINC62362959
   37    39     0     0     0
SMALL
USER_CHARGES

@<TRIPOS>ATOM
      1 C1          0.7019    0.2186    1.1371 C.ar      1 <0>         0.2591
      2 N1          1.7980    0.9514    1.1271 N.ar      1 <0>        -0.4817
      3 C2          2.2725    1.4499   -0.0093 C.ar      1 <0>         0.3818
      4 C3          1.5883    1.1844   -1.2028 C.ar      1 <0>         0.1343
      5 C4          0.4393    0.4080   -1.1416 C.ar      1 <0>         0.1401
      6 N2          0.0330   -0.0512    0.0351 N.ar      1 <0>        -0.4781
      7 Cl1        -0.4543    0.0435   -2.5847 Cl        1 <0>        -0.0196
      8 N3          2.0513    1.6894   -2.4254 N.pl3     1 <0>        -0.8484
      9 N4          3.4269    2.2213   -0.0141 N.pl3     1 <0>        -0.6438
     10 C5          4.7521    1.5922    0.0844 C.3       1 <0>         0.1465
     11 C6          5.5251    2.2432    1.2353 C.3       1 <0>        -0.1399
     12 C7          5.5577    3.7603    1.0360 C.3       1 <0>        -0.1129
     13 C8          4.1235    4.3032    1.0496 C.3       1 <0>        -0.0981
     14 H1          4.1405    5.3879    0.9436 H         1 <0>         0.0752
     15 C9          3.3525    3.6827   -0.1237 C.3       1 <0>         0.1815
     16 H2          3.8067    3.9971   -1.0633 H         1 <0>         0.0626
     17 C10         1.8966    4.1380   -0.1044 C.3       1 <0>        -0.1305
     18 C11         1.2439    3.7408    1.2208 C.3       1 <0>        -0.1490
     19 C12         2.0032    4.4011    2.3741 C.3       1 <0>        -0.1104
     20 C13         3.4663    3.9255    2.3795 C.3       1 <0>        -0.1124
     21 H3          0.3443   -0.1759    2.0767 H         1 <0>         0.2024
     22 H4          2.8995    2.1581   -2.4665 H         1 <0>         0.4081
     23 H5          1.5235    1.5702   -3.2305 H         1 <0>         0.4046
     24 H6          4.6366    0.5260    0.2791 H         1 <0>         0.0694
     25 H7          5.2957    1.7379   -0.8491 H         1 <0>         0.0576
     26 H8          5.0333    2.0114    2.1800 H         1 <0>         0.0742
     27 H9          6.5443    1.8571    1.2523 H         1 <0>         0.0685
     28 H10         6.1289    4.2211    1.8419 H         1 <0>         0.0636
     29 H11         6.0254    3.9918    0.0791 H         1 <0>         0.0612
     30 H12         1.8545    5.2212   -0.2184 H         1 <0>         0.0745
     31 H13         1.3592    3.6675   -0.9279 H         1 <0>         0.0631
     32 H14         0.2062    4.0742    1.2299 H         1 <0>         0.0526
     33 H15         1.2801    2.6573    1.3342 H         1 <0>         0.0960
     34 H16         1.9796    5.4841    2.2525 H         1 <0>         0.0532
     35 H17         1.5351    4.1302    3.3204 H         1 <0>         0.0582
     36 H18         3.4889    2.8424    2.5003 H         1 <0>         0.0791
     37 H19         4.0125    4.3922    3.1992 H         1 <0>         0.0572
@<TRIPOS>BOND
     1    1    6 ar
     2    1    2 ar
     3    1   21 1
     4    2    3 ar
     5    3    4 ar
     6    3    9 1
     7    4    5 ar
     8    4    8 1
     9    5    6 ar
    10    5    7 1
    11    8   22 1
    12    8   23 1
    13    9   15 1
    14    9   10 1
    15   10   11 1
    16   10   24 1
    17   10   25 1
    18   11   12 1
    19   11   26 1
    20   11   27 1
    21   12   13 1
    22   12   28 1
    23   12   29 1
    24   13   14 1
    25   13   20 1
    26   13   15 1
    27   15   16 1
    28   15   17 1
    29   17   18 1
    30   17   30 1
    31   17   31 1
    32   18   19 1
    33   18   32 1
    34   18   33 1
    35   19   20 1
    36   19   34 1
    37   19   35 1
    38   20   36 1
    39   20   37 1
@<TRIPOS>MOLECULE
ZINC03265472
   47    51     0     0     0
SMALL
USER_CHARGES
1-(1H-benzoimidazol-2-ylmethyl)-2-phenyl-5,6,7,8-tetrahydroquinazoline-4-thione
@<TRIPOS>ATOM
      1 C1         -3.3006    5.7099   -6.3107 C.ar      1 <0>        -0.0861
      2 C2         -2.8343    6.7924   -5.5861 C.ar      1 <0>        -0.1133
      3 C3         -2.3460    6.6124   -4.3084 C.ar      1 <0>        -0.0572
      4 C4         -2.3232    5.3347   -3.7470 C.ar      1 <0>        -0.0736
      5 C5         -2.7904    4.2461   -4.4854 C.ar      1 <0>        -0.1044
      6 C6         -3.2813    4.4408   -5.7599 C.ar      1 <0>        -0.1217
      7 C7         -1.8010    5.1343   -2.3787 C.2       1 <0>         0.4394
      8 N1         -2.3731    5.7544   -1.3693 N.2       1 <0>        -0.4807
      9 C8         -1.9144    5.5881   -0.1216 C.2       1 <0>         0.3035
     10 S1         -2.6695    6.3984    1.1839 S.2       1 <0>        -0.5436
     11 C9         -0.7995    4.7371    0.1179 C.2       1 <0>        -0.1573
     12 C10        -0.2316    4.1060   -0.9233 C.2       1 <0>         0.1989
     13 N2         -0.7368    4.3114   -2.1816 N.pl3     1 <0>        -0.4722
     14 C11        -0.1227    3.6356   -3.3272 C.3       1 <0>         0.1601
     15 C12        -0.6981    2.2492   -3.4602 C.2       1 <0>         0.2430
     16 N3         -1.2647    1.7457   -4.5898 N.pl3     1 <0>        -0.5911
     17 H1         -1.3728    2.2228   -5.4620 H         1 <0>         0.4315
     18 C13        -1.6628    0.4540   -4.3089 C.ar      1 <0>         0.0602
     19 C14        -2.2852   -0.5471   -5.0423 C.ar      1 <0>        -0.1142
     20 C15        -2.5577   -1.7604   -4.4474 C.ar      1 <0>        -0.0884
     21 C16        -2.2143   -1.9868   -3.1220 C.ar      1 <0>        -0.1240
     22 C17        -1.6018   -1.0134   -2.3849 C.ar      1 <0>        -0.0575
     23 C18        -1.3153    0.2243   -2.9670 C.ar      1 <0>         0.0435
     24 N4         -0.7304    1.3612   -2.5098 N.2       1 <0>        -0.4632
     25 C19         0.9418    3.1752   -0.7762 C.3       1 <0>        -0.0966
     26 C20         1.6385    3.3955    0.5654 C.3       1 <0>        -0.1164
     27 C21         0.5777    3.3569    1.6723 C.3       1 <0>        -0.1254
     28 C22        -0.3070    4.5943    1.5323 C.3       1 <0>        -0.0608
     29 H2         -3.6818    5.8563   -7.3105 H         1 <0>         0.1346
     30 H3         -2.8521    7.7805   -6.0218 H         1 <0>         0.1383
     31 H4         -1.9826    7.4583   -3.7438 H         1 <0>         0.1364
     32 H5         -2.7717    3.2543   -4.0583 H         1 <0>         0.1267
     33 H6         -3.6471    3.6001   -6.3306 H         1 <0>         0.1330
     34 H7         -0.3268    4.2024   -4.2356 H         1 <0>         0.1271
     35 H8          0.9546    3.5688   -3.1749 H         1 <0>         0.1388
     36 H9         -2.5542   -0.3762   -6.0742 H         1 <0>         0.1271
     37 H10        -3.0415   -2.5403   -5.0168 H         1 <0>         0.1349
     38 H11        -2.4338   -2.9421   -2.6686 H         1 <0>         0.1341
     39 H12        -1.3386   -1.2003   -1.3542 H         1 <0>         0.1323
     40 H13         1.6503    3.3598   -1.5836 H         1 <0>         0.0868
     41 H14         0.5922    2.1444   -0.8345 H         1 <0>         0.1269
     42 H15         2.3723    2.6069    0.7322 H         1 <0>         0.0823
     43 H16         2.1354    4.3656    0.5664 H         1 <0>         0.0711
     44 H17        -0.0299    2.4580    1.5678 H         1 <0>         0.0694
     45 H18         1.0641    3.3608    2.6478 H         1 <0>         0.0795
     46 H19         0.2687    5.4793    1.8034 H         1 <0>         0.0868
     47 H20        -1.1615    4.5030    2.2028 H         1 <0>         0.1015
@<TRIPOS>BOND
     1    1    6 ar
     2    1    2 ar
     3    1   29 1
     4    2    3 ar
     5    2   30 1
     6    3    4 ar
     7    3   31 1
     8    4    5 ar
     9    4    7 1
    10    5    6 ar
    11    5   32 1
    12    6   33 1
    13    7   13 1
    14    7    8 2
    15    8    9 1
    16    9   10 2
    17    9   11 1
    18   11   28 1
    19   11   12 2
    20   12   13 1
    21   12   25 1
    22   13   14 1
    23   14   15 1
    24   14   34 1
    25   14   35 1
    26   15   24 2
    27   15   16 1
    28   16   17 1
    29   16   18 1
    30   18   23 ar
    31   18   19 ar
    32   19   20 ar
    33   19   36 1
    34   20   21 ar
    35   20   37 1
    36   21   22 ar
    37   21   38 1
    38   22   23 ar
    39   22   39 1
    40   23   24 1
    41   25   26 1
    42   25   40 1
    43   25   41 1
    44   26   27 1
    45   26   42 1
    46   26   43 1
    47   27   28 1
    48   27   44 1
    49   27   45 1
    50   28   46 1
    51   28   47 1
@<TRIPOS>MOLECULE
ZINC11425547
   40    43     0     0     0
SMALL
USER_CHARGES
N-(4-chloro-2-fluoro-phenyl)-8-(4-fluorophenyl)-7,8-diazabicyclo[3.3.0]octa-6,9-diene-6-carboxamide
@<TRIPOS>ATOM
      1 C1          8.0226   -1.8731    1.0915 C.ar      1 <0>        -0.0840
      2 C2          9.3834   -1.6399    1.1200 C.ar      1 <0>        -0.1330
      3 C3          9.9251   -0.6043    0.3769 C.ar      1 <0>         0.1122
      4 C4          9.1041    0.1965   -0.3995 C.ar      1 <0>        -0.1350
      5 C5          7.7434   -0.0363   -0.4340 C.ar      1 <0>        -0.0705
      6 C6          7.1985   -1.0744    0.3100 C.ar      1 <0>         0.1129
      7 N1          5.8176   -1.3120    0.2767 N.pl3     1 <0>        -0.2107
      8 C7          5.2361   -2.5402    0.3415 C.2       1 <0>        -0.0125
      9 C8          3.9006   -2.3482    0.2856 C.2       1 <0>        -0.1465
     10 C9          3.7165   -0.9503    0.1757 C.2       1 <0>         0.0090
     11 N2          4.9161   -0.4017    0.1805 N.2       1 <0>        -0.2474
     12 C10         2.4262   -0.2394    0.0802 C.2       1 <0>         0.6130
     13 O1          1.3845   -0.8666    0.0869 O.2       1 <0>        -0.5009
     14 N3          2.4028    1.1048   -0.0145 N.am      1 <0>        -0.6599
     15 C11         1.1793    1.7858   -0.0110 C.ar      1 <0>         0.1211
     16 C12         0.0639    1.2148   -0.6084 C.ar      1 <0>        -0.0824
     17 C13        -1.1408    1.8907   -0.6083 C.ar      1 <0>        -0.0977
     18 C14        -1.2403    3.1317   -0.0038 C.ar      1 <0>        -0.0229
     19 C15        -0.1312    3.7044    0.5933 C.ar      1 <0>        -0.1270
     20 C16         1.0790    3.0351    0.5914 C.ar      1 <0>         0.0888
     21 F1          2.1621    3.5940    1.1742 F         1 <0>        -0.1279
     22 Cl1        -2.7582    3.9741    0.0001 Cl        1 <0>        -0.0528
     23 C17         3.1728   -3.6687    0.3595 C.3       1 <0>        -0.0485
     24 C18         4.2172   -4.6703    0.9011 C.3       1 <0>        -0.1151
     25 C19         5.5465   -4.0158    0.4555 C.3       1 <0>        -0.0401
     26 F2         11.2560   -0.3746    0.4097 F         1 <0>        -0.1292
     27 H1          7.6001   -2.6782    1.6743 H         1 <0>         0.1446
     28 H2         10.0253   -2.2633    1.7248 H         1 <0>         0.1514
     29 H3          9.5283    1.0039   -0.9780 H         1 <0>         0.1508
     30 H4          7.1034    0.5889   -1.0390 H         1 <0>         0.1475
     31 H5          3.2336    1.6006   -0.0851 H         1 <0>         0.4218
     32 H6          0.1390    0.2446   -1.0768 H         1 <0>         0.1609
     33 H7         -2.0073    1.4484   -1.0773 H         1 <0>         0.1470
     34 H8         -0.2106    4.6748    1.0607 H         1 <0>         0.1521
     35 H9          2.3265   -3.5971    1.0428 H         1 <0>         0.0841
     36 H10         2.8341   -3.9707   -0.6315 H         1 <0>         0.0852
     37 H11         4.1586   -4.7450    1.9870 H         1 <0>         0.0805
     38 H12         4.0942   -5.6495    0.4382 H         1 <0>         0.0891
     39 H13         5.8687   -4.4106   -0.5080 H         1 <0>         0.0924
     40 H14         6.3145   -4.1840    1.2105 H         1 <0>         0.0797
@<TRIPOS>BOND
     1    1    6 ar
     2    1    2 ar
     3    1   27 1
     4    2    3 ar
     5    2   28 1
     6    3    4 ar
     7    3   26 1
     8    4    5 ar
     9    4   29 1
    10    5    6 ar
    11    5   30 1
    12    6    7 1
    13    7   11 1
    14    7    8 1
    15    8   25 1
    16    8    9 2
    17    9   10 1
    18    9   23 1
    19   10   11 2
    20   10   12 1
    21   12   13 2
    22   12   14 am
    23   14   15 1
    24   14   31 1
    25   15   20 ar
    26   15   16 ar
    27   16   17 ar
    28   16   32 1
    29   17   18 ar
    30   17   33 1
    31   18   19 ar
    32   18   22 1
    33   19   20 ar
    34   19   34 1
    35   20   21 1
    36   23   24 1
    37   23   35 1
    38   23   36 1
    39   24   25 1
    40   24   37 1
    41   24   38 1
    42   25   39 1
    43   25   40 1
@<TRIPOS>MOLECULE
ZINC21702366
   42    44     0     0     0
SMALL
USER_CHARGES
N-(2,6-dimethylphenyl)-5-(3-fluoro-4-methoxy-phenyl)-6H-1,3,4-thiadiazin-2-amine
@<TRIPOS>ATOM
      1 C1         -3.0263    7.3338    0.2287 C.3       1 <0>        -0.1158
      2 C2         -4.1733    8.2793   -0.0188 C.ar      1 <0>        -0.1124
      3 C3         -3.9243    9.5860   -0.3900 C.ar      1 <0>        -0.1094
      4 C4         -4.9762   10.4558   -0.6122 C.ar      1 <0>        -0.1213
      5 C5         -6.2805   10.0194   -0.4680 C.ar      1 <0>        -0.1119
      6 C6         -6.5366    8.7127   -0.1017 C.ar      1 <0>        -0.0820
      7 C7         -5.4823    7.8363    0.1218 C.ar      1 <0>         0.0790
      8 N1         -5.7380    6.5131    0.4931 N.2       1 <0>        -0.5014
      9 C8         -5.5286    5.4943   -0.4057 C.2       1 <0>         0.3086
     10 N2         -5.1089    5.7615   -1.6195 N.pl3     1 <0>        -0.4774
     11 N3         -4.8983    4.8970   -2.5268 N.2       1 <0>        -0.2549
     12 C9         -5.3798    3.7012   -2.5925 C.2       1 <0>         0.1319
     13 C10        -6.3324    3.1651   -1.5518 C.3       1 <0>        -0.1285
     14 S1         -5.8237    3.8181    0.0672 S.3       1 <0>         0.0203
     15 C11        -4.9932    2.8371   -3.7188 C.ar      1 <0>        -0.0447
     16 C12        -5.5058    1.5392   -3.8156 C.ar      1 <0>        -0.0654
     17 C13        -5.1367    0.7311   -4.8692 C.ar      1 <0>        -0.1812
     18 C14        -4.2661    1.2064   -5.8407 C.ar      1 <0>         0.1116
     19 C15        -3.7573    2.4979   -5.7533 C.ar      1 <0>         0.0698
     20 C16        -4.1163    3.3127   -4.6993 C.ar      1 <0>        -0.0772
     21 F1         -2.9108    2.9552   -6.7017 F         1 <0>        -0.1277
     22 O1         -3.9101    0.4071   -6.8808 O.3       1 <0>        -0.3062
     23 C17        -4.4695   -0.9076   -6.9098 C.3       1 <0>         0.0199
     24 C18        -7.9583    8.2380    0.0547 C.3       1 <0>        -0.1159
     25 H1         -2.0747    7.8621    0.0692 H         1 <0>         0.0697
     26 H2         -3.0950    6.4841   -0.4665 H         1 <0>         0.0621
     27 H3         -3.0719    6.9651    1.2641 H         1 <0>         0.0727
     28 H4         -2.9068    9.9301   -0.5031 H         1 <0>         0.1253
     29 H5         -4.7787   11.4782   -0.8987 H         1 <0>         0.1252
     30 H6         -7.0998   10.7012   -0.6423 H         1 <0>         0.1258
     31 H7         -7.3557    3.4921   -1.7883 H         1 <0>         0.1218
     32 H8         -6.2904    2.0659   -1.5478 H         1 <0>         0.1458
     33 H9         -6.1869    1.1695   -3.0635 H         1 <0>         0.1399
     34 H10        -5.5290   -0.2725   -4.9417 H         1 <0>         0.1457
     35 H11        -3.7215    4.3156   -4.6317 H         1 <0>         0.1538
     36 H12        -4.1013   -1.4432   -7.7972 H         1 <0>         0.1076
     37 H13        -5.5665   -0.8384   -6.9522 H         1 <0>         0.0617
     38 H14        -4.1713   -1.4531   -6.0023 H         1 <0>         0.0618
     39 H15        -7.9607    7.1779    0.3483 H         1 <0>         0.0733
     40 H16        -8.4911    8.3552   -0.9005 H         1 <0>         0.0644
     41 H17        -8.4608    8.8344    0.8305 H         1 <0>         0.0718
     42 H18        -4.9385    6.8284   -1.8262 H         1 <0>         0.4639
@<TRIPOS>BOND
     1    1    2 1
     2    1   25 1
     3    1   26 1
     4    1   27 1
     5    2    7 ar
     6    2    3 ar
     7    3    4 ar
     8    3   28 1
     9    4    5 ar
    10    4   29 1
    11    5    6 ar
    12    5   30 1
    13    6    7 ar
    14    6   24 1
    15    7    8 1
    16    8    9 2
    17    9   14 1
    18    9   10 1
    19   10   11 1
    20   10   42 1
    21   11   12 2
    22   12   13 1
    23   12   15 1
    24   13   14 1
    25   13   31 1
    26   13   32 1
    27   15   20 ar
    28   15   16 ar
    29   16   17 ar
    30   16   33 1
    31   17   18 ar
    32   17   34 1
    33   18   19 ar
    34   18   22 1
    35   19   20 ar
    36   19   21 1
    37   20   35 1
    38   22   23 1
    39   23   36 1
    40   23   37 1
    41   23   38 1
    42   24   39 1
    43   24   40 1
    44   24   41 1
@<TRIPOS>MOLECULE
ZINC37562687
   26    27     0     0     0
SMALL
USER_CHARGES

@<TRIPOS>ATOM
      1 C1          1.9996    1.2826   -1.3040 C.ar      1 <0>        -0.0458
      2 C2          0.9201    1.9990   -0.8182 C.ar      1 <0>        -0.0694
      3 C3         -0.0541    1.3641   -0.0681 C.ar      1 <0>        -0.0466
      4 C4          0.0483    0.0115    0.1977 C.ar      1 <0>        -0.0913
      5 C5          1.1310   -0.7107   -0.2891 C.ar      1 <0>         0.2420
      6 C6          2.1077   -0.0702   -1.0417 C.ar      1 <0>        -0.0908
      7 Cl1         3.4622   -0.9682   -1.6522 Cl        1 <0>        -0.0440
      8 N1          1.2377   -2.0796   -0.0215 N.pl3     1 <0>        -0.7337
      9 C7          0.0618   -2.8336    0.4201 C.3       1 <0>         0.1652
     10 C8          0.3841   -4.3057    0.4316 C.2       1 <0>        -0.1680
     11 C9          0.1720   -5.0789   -0.6944 C.2       1 <0>        -0.0332
     12 C10         0.4730   -6.3999   -0.6508 C.2       1 <0>        -0.1685
     13 S1          1.0764   -6.5863    1.0190 S.3       1 <0>         0.2091
     14 C11         0.8916   -4.8901    1.5443 C.2       1 <0>        -0.1032
     15 N2          0.3362   -7.4227   -1.7123 N.pl3     1 <0>         0.0767
     16 O1         -0.0973   -7.1132   -2.7977 O.2       1 <0>        -0.1355
     17 O2          0.6580   -8.5674   -1.4939 O.3       1 <0>        -0.1404
     18 Cl2        -1.1740   -0.7841    1.1393 Cl        1 <0>        -0.0445
     19 Cl3         0.7878    3.6978   -1.1499 Cl        1 <0>        -0.0478
     20 H1          2.7563    1.7801   -1.8926 H         1 <0>         0.1518
     21 H2         -0.8952    1.9260    0.3104 H         1 <0>         0.1516
     22 H3          2.0904   -2.5296   -0.1282 H         1 <0>         0.4090
     23 H4         -0.2180   -2.5151    1.4243 H         1 <0>         0.0987
     24 H5         -0.7665   -2.6483   -0.2638 H         1 <0>         0.0857
     25 H6         -0.2278   -4.6373   -1.5952 H         1 <0>         0.1614
     26 H7          1.1227   -4.4454    2.5010 H         1 <0>         0.2114
@<TRIPOS>BOND
     1    1    6 ar
     2    1    2 ar
     3    1   20 1
     4    2    3 ar
     5    2   19 1
     6    3    4 ar
     7    3   21 1
     8    4    5 ar
     9    4   18 1
    10    5    6 ar
    11    5    8 1
    12    6    7 1
    13    8    9 1
    14    8   22 1
    15    9   10 1
    16    9   23 1
    17    9   24 1
    18   10   14 2
    19   10   11 1
    20   11   12 2
    21   11   25 1
    22   12   13 1
    23   12   15 1
    24   13   14 1
    25   14   26 1
    26   15   16 2
    27   15   17 1
@<TRIPOS>MOLECULE
ZINC49509697
   43    45     0     0     0
SMALL
USER_CHARGES

@<TRIPOS>ATOM
      1 C1          0.8971    2.3585    1.2757 C.3       1 <0>        -0.1290
      2 C2          0.9234    0.9048    0.7994 C.3       1 <0>        -0.0805
      3 C3          2.1436    0.1963    1.3908 C.3       1 <0>        -0.1547
      4 C4         -0.3514    0.1944    1.2590 C.3       1 <0>        -0.1493
      5 C5          1.0029    0.8706   -0.7051 C.2       1 <0>         0.5329
      6 O1          1.0049    1.9064   -1.3360 O.2       1 <0>        -0.5134
      7 N1          1.0717   -0.3111   -1.3496 N.am      1 <0>        -0.5508
      8 C6          1.1813   -1.6185   -0.6972 C.3       1 <0>         0.0874
      9 C7          1.2264   -2.6400   -1.8452 C.3       1 <0>        -0.0861
     10 C8          1.1358   -1.8044   -3.1025 C.ar      1 <0>        -0.1464
     11 C9          1.0430   -0.4694   -2.7388 C.ar      1 <0>         0.1624
     12 C10         0.9420    0.5003   -3.7360 C.ar      1 <0>        -0.1542
     13 C11         0.9301    0.1295   -5.0707 C.ar      1 <0>         0.1681
     14 C12         1.0189   -1.2117   -5.4213 C.ar      1 <0>        -0.1351
     15 C13         1.1291   -2.1723   -4.4348 C.ar      1 <0>        -0.0602
     16 N2          0.8282    1.1064   -6.0661 N.am      1 <0>        -0.6658
     17 C14         1.4943    0.9564   -7.2282 C.2       1 <0>         0.6101
     18 O2          2.1175   -0.0665   -7.4449 O.2       1 <0>        -0.4996
     19 C15         1.4683    2.0241   -8.2300 C.2       1 <0>        -0.2541
     20 C16         2.0738    2.0674   -9.4773 C.2       1 <0>        -0.0516
     21 C17         1.8678    3.2164  -10.2013 C.2       1 <0>        -0.1695
     22 C18         1.1076    4.2059   -9.6657 C.2       1 <0>        -0.1620
     23 S1          0.6437    3.6034   -8.1676 S.3       1 <0>         0.2566
     24 Cl1         0.7014    5.7393  -10.3709 Cl        1 <0>         0.0284
     25 H1          1.8052    2.8646    0.9483 H         1 <0>         0.0634
     26 H2          0.0278    2.8633    0.8544 H         1 <0>         0.0640
     27 H3          0.8396    2.3833    2.3639 H         1 <0>         0.0667
     28 H4          2.2157    0.4237    2.4544 H         1 <0>         0.0742
     29 H5          2.0396   -0.8803    1.2557 H         1 <0>         0.0710
     30 H6          3.0449    0.5407    0.8838 H         1 <0>         0.0612
     31 H7         -1.2047    0.5840    0.7039 H         1 <0>         0.0614
     32 H8         -0.2569   -0.8760    1.0760 H         1 <0>         0.0675
     33 H9         -0.5006    0.3690    2.3245 H         1 <0>         0.0745
     34 H10         2.0968   -1.6714   -0.1079 H         1 <0>         0.0931
     35 H11         0.3125   -1.7992   -0.0642 H         1 <0>         0.0918
     36 H12         2.1646   -3.1945   -1.8240 H         1 <0>         0.0930
     37 H13         0.3789   -3.3224   -1.7803 H         1 <0>         0.0931
     38 H14         0.8724    1.5439   -3.4667 H         1 <0>         0.1430
     39 H15         1.0093   -1.5018   -6.4616 H         1 <0>         0.1439
     40 H16         1.1972   -3.2158   -4.7051 H         1 <0>         0.1322
     41 H17         0.2781    1.8919   -5.9203 H         1 <0>         0.4109
     42 H18         2.6698    1.2498   -9.8550 H         1 <0>         0.1607
     43 H19         2.3045    3.3313  -11.1824 H         1 <0>         0.1508
@<TRIPOS>BOND
     1    1    2 1
     2    1   25 1
     3    1   26 1
     4    1   27 1
     5    2    3 1
     6    2    4 1
     7    2    5 1
     8    3   28 1
     9    3   29 1
    10    3   30 1
    11    4   31 1
    12    4   32 1
    13    4   33 1
    14    5    6 2
    15    5    7 am
    16    7   11 1
    17    7    8 1
    18    8    9 1
    19    8   34 1
    20    8   35 1
    21    9   10 1
    22    9   36 1
    23    9   37 1
    24   10   15 ar
    25   10   11 ar
    26   11   12 ar
    27   12   13 ar
    28   12   38 1
    29   13   14 ar
    30   13   16 1
    31   14   15 ar
    32   14   39 1
    33   15   40 1
    34   16   17 am
    35   16   41 1
    36   17   18 2
    37   17   19 1
    38   19   23 1
    39   19   20 2
    40   20   21 1
    41   20   42 1
    42   21   22 2
    43   21   43 1
    44   22   23 1
    45   22   24 1
@<TRIPOS>MOLECULE
ZINC04232295
   28    30     0     0     0
SMALL
USER_CHARGES
4-fluoro-N-(6-methyl-2-pyridyl)-benzothiazol-2-amine
@<TRIPOS>ATOM
      1 C1          1.1009   -2.1204    0.0040 C.3       1 <0>        -0.1056
      2 C2          1.1342   -0.6138    0.0029 C.ar      1 <0>         0.1684
      3 C3          2.3499    0.0411   -0.0036 C.ar      1 <0>        -0.2038
      4 C4          2.3745    1.4291   -0.0046 C.ar      1 <0>        -0.0403
      5 C5          1.1705    2.1108    0.0010 C.ar      1 <0>        -0.2121
      6 C6         -0.0167    1.3866    0.0075 C.ar      1 <0>         0.3695
      7 N1          0.0015    0.0625    0.0082 N.ar      1 <0>        -0.4768
      8 N2         -1.2351    2.0596    0.0191 N.pl3     1 <0>        -0.5961
      9 C7         -2.4175    1.3506   -0.0835 C.2       1 <0>         0.3931
     10 N3         -2.5982    0.0503   -0.1133 N.2       1 <0>        -0.5013
     11 C8         -3.8241   -0.5098   -0.2135 C.ar      1 <0>         0.0794
     12 C9         -4.1557   -1.8857   -0.2514 C.ar      1 <0>         0.1462
     13 C10        -5.4629   -2.2883   -0.3629 C.ar      1 <0>        -0.1425
     14 C11        -6.4995   -1.3695   -0.4420 C.ar      1 <0>        -0.0801
     15 C12        -6.2107   -0.0178   -0.4078 C.ar      1 <0>        -0.0690
     16 C13        -4.9057    0.3949   -0.2964 C.ar      1 <0>        -0.1336
     17 S1         -4.0884    1.9705   -0.2173 S.3       1 <0>         0.0022
     18 F1         -3.1750   -2.8119   -0.1770 F         1 <0>        -0.1238
     19 H1          1.0980   -2.4830    1.0319 H         1 <0>         0.0799
     20 H2          0.2005   -2.4643   -0.5051 H         1 <0>         0.0810
     21 H3          1.9800   -2.5036   -0.5140 H         1 <0>         0.0762
     22 H4          3.2722   -0.5209   -0.0076 H         1 <0>         0.1372
     23 H5          3.3123    1.9648   -0.0093 H         1 <0>         0.1409
     24 H6          1.1528    3.1906    0.0001 H         1 <0>         0.1372
     25 H7         -1.2546    3.0261    0.0992 H         1 <0>         0.4392
     26 H8         -5.6897   -3.3439   -0.3901 H         1 <0>         0.1464
     27 H9         -7.5218   -1.7067   -0.5290 H         1 <0>         0.1486
     28 H10        -7.0068    0.7094   -0.4688 H         1 <0>         0.1396
@<TRIPOS>BOND
     1    1    2 1
     2    1   19 1
     3    1   20 1
     4    1   21 1
     5    2    7 ar
     6    2    3 ar
     7    3    4 ar
     8    3   22 1
     9    4    5 ar
    10    4   23 1
    11    5    6 ar
    12    5   24 1
    13    6    7 ar
    14    6    8 1
    15    8    9 1
    16    8   25 1
    17    9   17 1
    18    9   10 2
    19   10   11 1
    20   11   16 ar
    21   11   12 ar
    22   12   13 ar
    23   12   18 1
    24   13   14 ar
    25   13   26 1
    26   14   15 ar
    27   14   27 1
    28   15   16 ar
    29   15   28 1
    30   16   17 1
@<TRIPOS>MOLECULE
ZINC26443743
   35    36     0     0     0
SMALL
USER_CHARGES
6-tert-butyl-2-pyrrolidin-1-yl-pyrimidine-4-thiol
@<TRIPOS>ATOM
      1 C1          4.2267    3.6540   -3.0781 C.3       1 <0>        -0.1424
      2 C2          4.5349    2.2899   -2.4577 C.3       1 <0>        -0.0218
      3 C3          6.0321    2.1926   -2.1576 C.3       1 <0>        -0.1331
      4 C4          4.1380    1.1830   -3.4366 C.3       1 <0>        -0.1480
      5 C5          3.7548    2.1322   -1.1780 C.2       1 <0>         0.2436
      6 C6          2.3987    1.8744   -1.2147 C.2       1 <0>        -0.2132
      7 C7          1.7138    1.7353   -0.0050 C.2       1 <0>         0.3380
      8 N1          2.3866    1.8608    1.1354 N.pl3     1 <0>        -0.5733
      9 C8          3.6885    2.1030    1.1269 C.2       1 <0>         0.5399
     10 N2          4.3630    2.2395   -0.0055 N.2       1 <0>        -0.5081
     11 N3          4.3616    2.2164    2.3309 N.pl3     1 <0>        -0.4489
     12 C9          4.9405    3.5748    2.4911 C.3       1 <0>         0.0472
     13 C10         5.1635    3.6870    4.0203 C.3       1 <0>        -0.1246
     14 C11         3.9330    2.9553    4.6036 C.3       1 <0>        -0.1246
     15 C12         3.4396    2.0337    3.4728 C.3       1 <0>         0.0163
     16 S1         -0.0170    1.4058    0.0098 S.2       1 <0>        -0.6579
     17 H1          3.1503    3.7239   -3.2938 H         1 <0>         0.0644
     18 H2          4.7961    3.7691   -4.0122 H         1 <0>         0.0761
     19 H3          4.5120    4.4498   -2.3743 H         1 <0>         0.0607
     20 H4          6.2536    1.2118   -1.7116 H         1 <0>         0.0597
     21 H5          6.3174    2.9883   -1.4539 H         1 <0>         0.0676
     22 H6          6.6015    2.3076   -3.0918 H         1 <0>         0.0631
     23 H7          4.3596    0.2022   -2.9905 H         1 <0>         0.0619
     24 H8          4.7074    1.2980   -4.3707 H         1 <0>         0.0754
     25 H9          3.0616    1.2529   -3.6523 H         1 <0>         0.0672
     26 H10         1.9291    1.7914   -2.0937 H         1 <0>         0.1544
     27 H11         5.8799    3.6424    1.9228 H         1 <0>         0.1112
     28 H12         4.2288    4.3237    2.1135 H         1 <0>         0.0618
     29 H13         6.1125    3.2001    4.2892 H         1 <0>         0.0889
     30 H14         5.2012    4.7479    4.3085 H         1 <0>         0.0904
     31 H15         4.2351    2.3804    5.4915 H         1 <0>         0.0928
     32 H16         3.1681    3.6931    4.8873 H         1 <0>         0.0844
     33 H17         2.4188    2.3067    3.1671 H         1 <0>         0.0593
     34 H18         3.4573    0.9817    3.7937 H         1 <0>         0.1120
     35 H19         1.8618    1.7634    2.0972 H         1 <0>         0.4596
@<TRIPOS>BOND
     1    1    2 1
     2    1   17 1
     3    1   18 1
     4    1   19 1
     5    2    3 1
     6    2    4 1
     7    2    5 1
     8    3   20 1
     9    3   21 1
    10    3   22 1
    11    4   23 1
    12    4   24 1
    13    4   25 1
    14    5   10 1
    15    5    6 2
    16    6   26 1
    17    6    7 1
    18    7   16 2
    19    7    8 1
    20    8   35 1
    21    8    9 1
    22    9   11 1
    23    9   10 2
    24   11   15 1
    25   11   12 1
    26   12   13 1
    27   12   27 1
    28   12   28 1
    29   13   14 1
    30   13   29 1
    31   13   30 1
    32   14   15 1
    33   14   31 1
    34   14   32 1
    35   15   33 1
    36   15   34 1
@<TRIPOS>MOLECULE
ZINC38052800
   32    34     0     0     0
SMALL
USER_CHARGES

@<TRIPOS>ATOM
      1 C1          2.4847    0.0893   -0.0328 C.3       1 <0>        -0.1155
      2 C2          1.1902   -0.6821   -0.0185 C.ar      1 <0>        -0.0200
      3 C3          0.5817   -1.0336   -1.2028 C.ar      1 <0>        -0.1240
      4 C4         -0.6094   -1.7439   -1.1967 C.ar      1 <0>        -0.0795
      5 C5         -1.2014   -2.1082   -0.0046 C.ar      1 <0>        -0.1020
      6 C6         -0.6039   -1.7633    1.1973 C.ar      1 <0>         0.0167
      7 C7          0.6055   -1.0485    1.1960 C.ar      1 <0>         0.0173
      8 N1          0.9497   -0.8623    2.4961 N.2       1 <0>        -0.4522
      9 C8          0.0389   -1.4165    3.2562 C.2       1 <0>         0.2856
     10 O1         -0.9255   -1.9669    2.4943 O.3       1 <0>        -0.2034
     11 C9          0.0598   -1.4258    4.7330 C.2       1 <0>        -0.1083
     12 C10        -0.0064   -2.5658    5.3895 C.2       1 <0>        -0.0178
     13 C11         0.0202   -2.4947    6.9022 C.3       1 <0>        -0.0393
     14 S1          0.1448   -0.6831    7.1907 S.3       1 <0>        -0.0734
     15 C12         0.1614   -0.1528    5.4852 C.2       1 <0>         0.2508
     16 N2          0.2415    1.0611    5.0154 N.2       1 <0>        -0.6162
     17 C13        -1.2714   -3.0566    7.4996 C.3       1 <0>        -0.1340
     18 C14        -0.1050   -3.8843    4.6664 C.3       1 <0>        -0.1231
     19 H1          3.3227   -0.6075   -0.0494 H         1 <0>         0.0775
     20 H2          2.5207    0.7222   -0.9196 H         1 <0>         0.0737
     21 H3          2.5469    0.7113    0.8601 H         1 <0>         0.0745
     22 H4          1.0348   -0.7541   -2.1425 H         1 <0>         0.1409
     23 H5         -1.0774   -2.0137   -2.1319 H         1 <0>         0.1447
     24 H6         -2.1292   -2.6610   -0.0082 H         1 <0>         0.1379
     25 H7          0.2386    1.2115    4.0572 H         1 <0>         0.3537
     26 H8          0.8909   -3.0146    7.3019 H         1 <0>         0.1428
     27 H9         -1.3869   -4.0984    7.2004 H         1 <0>         0.0802
     28 H10        -1.2263   -2.9938    8.5869 H         1 <0>         0.0810
     29 H11        -2.1211   -2.4781    7.1372 H         1 <0>         0.0732
     30 H12        -0.0141   -3.7178    3.5931 H         1 <0>         0.0710
     31 H13         0.6964   -4.5430    5.0011 H         1 <0>         0.0920
     32 H14        -1.0686   -4.3458    4.8821 H         1 <0>         0.0954
@<TRIPOS>BOND
     1    1    2 1
     2    1   19 1
     3    1   20 1
     4    1   21 1
     5    2    7 ar
     6    2    3 ar
     7    3    4 ar
     8    3   22 1
     9    4    5 ar
    10    4   23 1
    11    5    6 ar
    12    5   24 1
    13    6   10 1
    14    6    7 ar
    15    7    8 1
    16    8    9 2
    17    9   10 1
    18    9   11 1
    19   11   15 1
    20   11   12 2
    21   12   18 1
    22   12   13 1
    23   13   17 1
    24   13   26 1
    25   13   14 1
    26   14   15 1
    27   15   16 2
    28   16   25 1
    29   17   27 1
    30   17   28 1
    31   17   29 1
    32   18   30 1
    33   18   31 1
    34   18   32 1
@<TRIPOS>MOLECULE
ZINC42404137
   28    30     0     0     0
SMALL
USER_CHARGES

@<TRIPOS>ATOM
      1 C1         -0.0167    1.3830    0.0096 C.2       1 <0>        -0.0449
      2 C2          1.2131    1.9967    0.0012 C.2       1 <0>        -0.1675
      3 C3          2.3325    1.2292   -0.0136 C.2       1 <0>        -0.1598
      4 S1          1.7513   -0.3470   -0.0165 S.3       1 <0>         0.2633
      5 C4          0.0021   -0.0041    0.0020 C.2       1 <0>        -0.2001
      6 C5         -1.1224   -0.9424    0.0077 C.2       1 <0>         0.4828
      7 N1         -0.8786   -2.2880    0.0038 N.am      1 <0>        -0.6340
      8 H1          0.0328   -2.6203    0.0013 H         1 <0>         0.4153
      9 C6         -1.9163   -3.1484    0.0041 C.2       1 <0>         0.5287
     10 O1         -1.7201   -4.3526    0.0002 O.2       1 <0>        -0.5289
     11 C7         -3.2332   -2.6386    0.0093 C.2       1 <0>        -0.2414
     12 C8         -3.4180   -1.2925    0.0214 C.2       1 <0>         0.1857
     13 N2         -2.3571   -0.4787    0.0220 N.2       1 <0>        -0.5177
     14 C9         -4.7851   -0.6606    0.0492 C.3       1 <0>        -0.0713
     15 C10        -5.8508   -1.6652   -0.3843 C.3       1 <0>        -0.1211
     16 C11        -5.6698   -2.9473    0.4372 C.3       1 <0>        -0.1219
     17 C12        -4.3722   -3.6217   -0.0048 C.3       1 <0>        -0.0543
     18 Cl1         3.9866    1.7560   -0.0271 Cl        1 <0>         0.0328
     19 H2         -0.9389    1.9449    0.0258 H         1 <0>         0.1659
     20 H3          1.2877    3.0741    0.0059 H         1 <0>         0.1534
     21 H4         -5.0030   -0.3200    1.0614 H         1 <0>         0.0931
     22 H5         -4.8000    0.1936   -0.6277 H         1 <0>         0.0925
     23 H6         -6.8421   -1.2499   -0.2030 H         1 <0>         0.0782
     24 H7         -5.7344   -1.8892   -1.4447 H         1 <0>         0.0696
     25 H8         -5.6123   -2.6993    1.4971 H         1 <0>         0.0677
     26 H9         -6.5108   -3.6180    0.2614 H         1 <0>         0.0752
     27 H10        -4.4965   -4.0133   -1.0145 H         1 <0>         0.0775
     28 H11        -4.1455   -4.4442    0.6735 H         1 <0>         0.0811
@<TRIPOS>BOND
     1    1    5 2
     2    1    2 1
     3    1   19 1
     4    2    3 2
     5    2   20 1
     6    3    4 1
     7    3   18 1
     8    4    5 1
     9    5    6 1
    10    6   13 2
    11    6    7 1
    12    7    8 1
    13    7    9 am
    14    9   10 2
    15    9   11 1
    16   11   17 1
    17   11   12 2
    18   12   13 1
    19   12   14 1
    20   14   15 1
    21   14   21 1
    22   14   22 1
    23   15   16 1
    24   15   23 1
    25   15   24 1
    26   16   17 1
    27   16   25 1
    28   16   26 1
    29   17   27 1
    30   17   28 1
@<TRIPOS>MOLECULE
ZINC53923984
   48    50     0     0     0
SMALL
USER_CHARGES

@<TRIPOS>ATOM
      1 C1         -0.7016    1.0680   -0.5449 C.3       1 <0>        -0.1200
      2 C2          0.5908    1.7904   -0.2764 C.3       1 <0>        -0.1232
      3 C3          1.3175    2.1996   -1.5719 C.3       1 <0>        -0.1146
      4 C4          1.2823    1.0994   -2.6498 C.3       1 <0>        -0.0707
      5 H1          0.3084    1.1160   -3.1390 H         1 <0>         0.0828
      6 C5          1.5173   -0.2731   -2.0795 C.3       1 <0>         0.1130
      7 H2          2.0930   -0.1929   -1.1574 H         1 <0>         0.0560
      8 C6          0.1494   -0.9207   -1.7816 C.3       1 <0>        -0.1467
      9 C7         -0.4268   -0.4497   -0.5309 C.3       1 <0>        -0.1184
     10 O1          2.2340   -1.0696   -3.0250 O.3       1 <0>        -0.5646
     11 C8          2.3639    1.3922   -3.6915 C.3       1 <0>         0.0570
     12 N1          2.0321    2.6317   -4.4068 N.3       1 <0>        -0.5314
     13 C9          2.5082    3.8107   -3.6672 C.3       1 <0>        -0.0005
     14 C10         2.1032    5.0816   -4.4177 C.3       1 <0>         0.0639
     15 O2          2.6155    5.0314   -5.7530 O.3       1 <0>        -0.3829
     16 C11         2.1609    3.8976   -6.4941 C.3       1 <0>         0.0994
     17 H3          1.0740    3.9263   -6.5711 H         1 <0>         0.0654
     18 C12         2.5870    2.6193   -5.7666 C.3       1 <0>         0.0570
     19 H4          3.6749    2.5769   -5.7143 H         1 <0>         0.0463
     20 C13         2.0679    1.4043   -6.5358 C.3       1 <0>        -0.1132
     21 C14         2.6662    1.4066   -7.9449 C.3       1 <0>        -0.1209
     22 C15         2.2620    2.6890   -8.6740 C.3       1 <0>        -0.1170
     23 C16         2.7710    3.9051   -7.8959 C.3       1 <0>        -0.1119
     24 H5         -1.4273    1.3158    0.2297 H         1 <0>         0.0635
     25 H6         -1.0890    1.3609   -1.5207 H         1 <0>         0.0682
     26 H7          0.3794    2.6862    0.3074 H         1 <0>         0.0608
     27 H8          1.2446    1.1395    0.3041 H         1 <0>         0.0592
     28 H9          0.8459    3.0977   -1.9708 H         1 <0>         0.0747
     29 H10         2.3570    2.4266   -1.3351 H         1 <0>         0.0580
     30 H11        -0.5364   -0.6874   -2.5961 H         1 <0>         0.0681
     31 H12         0.2751   -2.0020   -1.7273 H         1 <0>         0.0626
     32 H13         0.2625   -0.6761    0.2826 H         1 <0>         0.0598
     33 H14        -1.3643   -0.9766   -0.3536 H         1 <0>         0.0620
     34 H15         2.4197   -1.9687   -2.7213 H         1 <0>         0.3759
     35 H16         3.3266    1.5068   -3.1934 H         1 <0>         0.0351
     36 H17         2.4179    0.5666   -4.4011 H         1 <0>         0.0980
     37 H18         2.0636    3.8193   -2.6720 H         1 <0>         0.1020
     38 H19         3.5939    3.7708   -3.5798 H         1 <0>         0.0395
     39 H20         1.0161    5.1547   -4.4482 H         1 <0>         0.0580
     40 H21         2.5115    5.9523   -3.9045 H         1 <0>         0.0965
     41 H22         2.3620    0.4920   -6.0169 H         1 <0>         0.0730
     42 H23         0.9810    1.4523   -6.6018 H         1 <0>         0.0715
     43 H24         3.7529    1.3548   -7.8776 H         1 <0>         0.0623
     44 H25         2.2961    0.5431   -8.4975 H         1 <0>         0.0681
     45 H26         2.6964    2.6902   -9.6736 H         1 <0>         0.0701
     46 H27         1.1757    2.7352   -8.7512 H         1 <0>         0.0657
     47 H28         2.4778    4.8173   -8.4157 H         1 <0>         0.0733
     48 H29         3.8575    3.8615   -7.8203 H         1 <0>         0.0694
@<TRIPOS>BOND
     1    1    9 1
     2    1    2 1
     3    1   24 1
     4    1   25 1
     5    2    3 1
     6    2   26 1
     7    2   27 1
     8    3    4 1
     9    3   28 1
    10    3   29 1
    11    4    5 1
    12    4    6 1
    13    4   11 1
    14    6    7 1
    15    6    8 1
    16    6   10 1
    17    8    9 1
    18    8   30 1
    19    8   31 1
    20    9   32 1
    21    9   33 1
    22   10   34 1
    23   11   12 1
    24   11   35 1
    25   11   36 1
    26   12   18 1
    27   12   13 1
    28   13   14 1
    29   13   37 1
    30   13   38 1
    31   14   15 1
    32   14   39 1
    33   14   40 1
    34   15   16 1
    35   16   17 1
    36   16   23 1
    37   16   18 1
    38   18   19 1
    39   18   20 1
    40   20   21 1
    41   20   41 1
    42   20   42 1
    43   21   22 1
    44   21   43 1
    45   21   44 1
    46   22   23 1
    47   22   45 1
    48   22   46 1
    49   23   47 1
    50   23   48 1
@<TRIPOS>MOLECULE
ZINC03201139
   31    34     0     0     0
SMALL
USER_CHARGES

@<TRIPOS>ATOM
      1 C1         -6.4442    6.4463    0.0699 C.ar      1 <0>        -0.1133
      2 C2         -5.1276    6.8990    0.0661 C.ar      1 <0>        -0.1049
      3 C3         -4.0849    6.0228    0.0557 C.ar      1 <0>        -0.1096
      4 C4         -4.3333    4.6415    0.0497 C.ar      1 <0>         0.0075
      5 C5         -5.6764    4.1818    0.0541 C.ar      1 <0>        -0.0423
      6 C6         -6.7244    5.1128    0.0643 C.ar      1 <0>        -0.0968
      7 C7         -5.9208    2.7951    0.0476 C.ar      1 <0>        -0.0906
      8 C8         -4.9074    1.9042    0.0378 C.ar      1 <0>        -0.0662
      9 C9         -3.5435    2.3174    0.0325 C.ar      1 <0>         0.1164
     10 C10        -3.3022    3.7018    0.0391 C.ar      1 <0>        -0.1495
     11 S1         -1.5278    3.7820    0.0372 S.3       1 <0>         0.0315
     12 C11        -1.2262    2.0204    0.0188 C.2       1 <0>         0.3622
     13 N1         -2.4449    1.5320    0.0224 N.2       1 <0>        -0.5047
     14 N2         -0.0162    1.3436    0.0094 N.am      1 <0>        -0.6150
     15 C12         0.0021   -0.0041    0.0020 C.2       1 <0>         0.5385
     16 O1         -1.0398   -0.6247    0.0086 O.2       1 <0>        -0.4646
     17 C13         1.3172   -0.7397   -0.0145 C.3       1 <0>        -0.1961
     18 C14         1.6801   -1.5095   -1.2859 C.3       1 <0>        -0.1485
     19 C15         1.2712   -2.2690   -0.0223 C.3       1 <0>        -0.1416
     20 H1         -7.2538    7.1611    0.0777 H         1 <0>         0.1285
     21 H2         -4.9301    7.9608    0.0714 H         1 <0>         0.1279
     22 H3         -3.0693    6.3901    0.0522 H         1 <0>         0.1249
     23 H4         -7.7500    4.7744    0.0674 H         1 <0>         0.1339
     24 H5         -6.9398    2.4374    0.0509 H         1 <0>         0.1401
     25 H6         -5.1363    0.8487    0.0327 H         1 <0>         0.1356
     26 H7          0.8172    1.8399    0.0041 H         1 <0>         0.4307
     27 H8          2.1292   -0.2634    0.5349 H         1 <0>         0.1326
     28 H9          0.9677   -1.4839   -2.1105 H         1 <0>         0.1022
     29 H10         2.7312   -1.5397   -1.5733 H         1 <0>         0.1108
     30 H11         2.0531   -2.7988    0.5217 H         1 <0>         0.1096
     31 H12         0.2897   -2.7430   -0.0150 H         1 <0>         0.1108
@<TRIPOS>BOND
     1    1    6 ar
     2    1    2 ar
     3    1   20 1
     4    2    3 ar
     5    2   21 1
     6    3    4 ar
     7    3   22 1
     8    4   10 ar
     9    4    5 ar
    10    5    6 ar
    11    5    7 ar
    12    6   23 1
    13    7    8 ar
    14    7   24 1
    15    8    9 ar
    16    8   25 1
    17    9   13 1
    18    9   10 ar
    19   10   11 1
    20   11   12 1
    21   12   13 2
    22   12   14 1
    23   14   15 am
    24   14   26 1
    25   15   16 2
    26   15   17 1
    27   17   19 1
    28   17   18 1
    29   17   27 1
    30   18   19 1
    31   18   28 1
    32   18   29 1
    33   19   30 1
    34   19   31 1
@<TRIPOS>MOLECULE
ZINC20636618
   38    40     0     0     0
SMALL
USER_CHARGES
(2R)-2-ethyl-2-methyl-3-phenyl-1H-quinazolin-4-one
@<TRIPOS>ATOM
      1 C1         -2.8451    6.6314   -1.9503 C.3       1 <0>        -0.1483
      2 C2         -1.4862    6.0257   -1.5932 C.3       1 <0>        -0.1426
      3 C3         -1.3487    5.9431   -0.0716 C.3       1 <0>         0.4118
      4 N1         -1.4684    7.2896    0.5064 N.pl3     1 <0>        -0.7529
      5 C4         -0.3844    8.1553    0.4129 C.ar      1 <0>         0.2455
      6 C5         -0.5502    9.5296    0.3778 C.ar      1 <0>        -0.1885
      7 C6          0.5582   10.3506    0.2984 C.ar      1 <0>        -0.0496
      8 C7          1.8337    9.8098    0.2538 C.ar      1 <0>        -0.1767
      9 C8          2.0162    8.4429    0.2831 C.ar      1 <0>        -0.0183
     10 C9          0.9072    7.6030    0.3599 C.ar      1 <0>        -0.2079
     11 C10         1.0494    6.1368    0.3858 C.2       1 <0>         0.5737
     12 O1          2.1470    5.6288    0.5133 O.2       1 <0>        -0.5220
     13 N2         -0.0484    5.3635    0.2665 N.am      1 <0>        -0.5808
     14 C11         0.0584    3.9831    0.4635 C.ar      1 <0>         0.1445
     15 C12        -0.0217    3.4548    1.7455 C.ar      1 <0>        -0.1099
     16 C13         0.0847    2.0912    1.9367 C.ar      1 <0>        -0.1107
     17 C14         0.2713    1.2521    0.8535 C.ar      1 <0>        -0.1141
     18 C15         0.3571    1.7754   -0.4236 C.ar      1 <0>        -0.1105
     19 C16         0.2454    3.1375   -0.6223 C.ar      1 <0>        -0.1109
     20 C17        -2.4607    5.0526    0.4863 C.3       1 <0>        -0.1702
     21 H1         -2.9440    6.6908   -3.0442 H         1 <0>         0.0595
     22 H2         -2.9211    7.6408   -1.5199 H         1 <0>         0.0611
     23 H3         -3.6472    5.9980   -1.5435 H         1 <0>         0.0597
     24 H4         -1.4102    5.0163   -2.0236 H         1 <0>         0.0762
     25 H5         -0.6841    6.6591   -2.0000 H         1 <0>         0.0679
     26 H6         -2.4024    7.5949    1.0008 H         1 <0>         0.4337
     27 H7         -1.5412    9.9577    0.4128 H         1 <0>         0.1290
     28 H8          0.4298   11.4226    0.2713 H         1 <0>         0.1280
     29 H9          2.6912   10.4637    0.1949 H         1 <0>         0.1279
     30 H10         3.0121    8.0264    0.2475 H         1 <0>         0.1339
     31 H11        -0.1674    4.1097    2.5919 H         1 <0>         0.1206
     32 H12         0.0225    1.6798    2.9334 H         1 <0>         0.1273
     33 H13         0.3545    0.1861    1.0058 H         1 <0>         0.1265
     34 H14         0.5077    1.1177   -1.2670 H         1 <0>         0.1278
     35 H15         0.3081    3.5452   -1.6205 H         1 <0>         0.1230
     36 H16        -2.3661    4.9900    1.5804 H         1 <0>         0.0710
     37 H17        -2.3760    4.0452    0.0527 H         1 <0>         0.0818
     38 H18        -3.4395    5.4823    0.2268 H         1 <0>         0.0838
@<TRIPOS>BOND
     1    1    2 1
     2    1   21 1
     3    1   22 1
     4    1   23 1
     5    2    3 1
     6    2   24 1
     7    2   25 1
     8    3   13 1
     9    3    4 1
    10    3   20 1
    11    4    5 1
    12    4   26 1
    13    5   10 ar
    14    5    6 ar
    15    6    7 ar
    16    6   27 1
    17    7    8 ar
    18    7   28 1
    19    8    9 ar
    20    8   29 1
    21    9   10 ar
    22    9   30 1
    23   10   11 1
    24   11   12 2
    25   11   13 am
    26   13   14 1
    27   14   19 ar
    28   14   15 ar
    29   15   16 ar
    30   15   31 1
    31   16   17 ar
    32   16   32 1
    33   17   18 ar
    34   17   33 1
    35   18   19 ar
    36   18   34 1
    37   19   35 1
    38   20   36 1
    39   20   37 1
    40   20   38 1
@<TRIPOS>MOLECULE
ZINC37909290
   35    36     0     0     0
SMALL
USER_CHARGES

@<TRIPOS>ATOM
      1 C1         -0.0184    1.5028    0.0103 C.3       1 <0>        -0.1169
      2 C2          0.0021   -0.0041    0.0020 C.ar      1 <0>        -0.0347
      3 C3          0.0057   -0.6881   -1.1998 C.ar      1 <0>        -0.1761
      4 C4          0.0240   -2.0708   -1.2119 C.ar      1 <0>        -0.0349
      5 C5          0.0391   -2.7732   -0.0230 C.ar      1 <0>        -0.1973
      6 C6          0.0360   -2.0892    1.1861 C.ar      1 <0>         0.2231
      7 C7          0.0229   -0.7002    1.1946 C.ar      1 <0>        -0.2039
      8 N1          0.0513   -2.7964    2.3904 N.pl3     1 <0>        -0.7462
      9 C8          0.0479   -2.0734    3.6646 C.3       1 <0>         0.2310
     10 C9          0.0666   -3.0611    4.8027 C.2       1 <0>         0.1662
     11 N2          1.1347   -3.5399    5.3741 N.2       1 <0>        -0.4550
     12 C10         0.7593   -4.3893    6.3468 C.2       1 <0>        -0.0180
     13 C11        -0.5834   -4.4237    6.3623 C.2       1 <0>        -0.0376
     14 O1         -1.0127   -3.5869    5.3972 O.3       1 <0>        -0.1947
     15 C12        -1.4474   -5.2406    7.2881 C.3       1 <0>        -0.0706
     16 C13         1.6793   -5.1634    7.2553 C.3       1 <0>        -0.0724
     17 C14         0.0269   -2.8120   -2.5241 C.3       1 <0>        -0.1168
     18 H1          1.0042    1.8801    0.0026 H         1 <0>         0.0720
     19 H2         -0.5455    1.8639   -0.8728 H         1 <0>         0.0674
     20 H3         -0.5286    1.8543    0.9071 H         1 <0>         0.0657
     21 H4         -0.0061   -0.1413   -2.1310 H         1 <0>         0.1184
     22 H5          0.0530   -3.8531   -0.0331 H         1 <0>         0.1185
     23 H6          0.0244   -0.1652    2.1328 H         1 <0>         0.1199
     24 H7          0.0641   -3.7663    2.3832 H         1 <0>         0.4029
     25 H8          0.9298   -1.4355    3.7226 H         1 <0>         0.1031
     26 H9         -0.8500   -1.4591    3.7314 H         1 <0>         0.0892
     27 H10        -1.6678   -4.6615    8.1849 H         1 <0>         0.0875
     28 H11        -2.3787   -5.4977    6.7836 H         1 <0>         0.0804
     29 H12        -0.9205   -6.1536    7.5656 H         1 <0>         0.0947
     30 H13         1.8890   -4.5739    8.1479 H         1 <0>         0.0769
     31 H14         1.2024   -6.1004    7.5426 H         1 <0>         0.0760
     32 H15         2.6120   -5.3757    6.7327 H         1 <0>         0.0772
     33 H16         1.0551   -2.9771   -2.8458 H         1 <0>         0.0718
     34 H17        -0.4736   -3.7723   -2.4000 H         1 <0>         0.0655
     35 H18        -0.4988   -2.2227   -3.2754 H         1 <0>         0.0676
@<TRIPOS>BOND
     1    1    2 1
     2    1   18 1
     3    1   19 1
     4    1   20 1
     5    2    7 ar
     6    2    3 ar
     7    3    4 ar
     8    3   21 1
     9    4    5 ar
    10    4   17 1
    11    5    6 ar
    12    5   22 1
    13    6    7 ar
    14    6    8 1
    15    7   23 1
    16    8    9 1
    17    8   24 1
    18    9   10 1
    19    9   25 1
    20    9   26 1
    21   10   14 1
    22   10   11 2
    23   11   12 1
    24   12   13 2
    25   12   16 1
    26   13   14 1
    27   13   15 1
    28   15   27 1
    29   15   28 1
    30   15   29 1
    31   16   30 1
    32   16   31 1
    33   16   32 1
    34   17   33 1
    35   17   34 1
    36   17   35 1
@<TRIPOS>MOLECULE
ZINC43537446
   22    23     0     0     0
SMALL
USER_CHARGES

@<TRIPOS>ATOM
      1 C1          0.3410    0.7869    1.9839 C.ar      1 <0>         0.1066
      2 C2          1.4459    1.5934    1.7906 C.ar      1 <0>         0.0195
      3 N1          2.4357    1.1907    1.0108 N.ar      1 <0>        -0.3936
      4 C3          2.3710    0.0150    0.4136 C.ar      1 <0>         0.0771
      5 C4          1.2571   -0.8015    0.6067 C.ar      1 <0>         0.3619
      6 N2          0.2677   -0.3924    1.3897 N.ar      1 <0>        -0.4696
      7 N3          1.1835   -2.0412   -0.0205 N.pl3     1 <0>        -0.6470
      8 C5          0.0176   -2.8053    0.0767 C.ar      1 <0>         0.2198
      9 C6         -1.2238   -2.1825    0.0806 C.ar      1 <0>        -0.1648
     10 C7         -2.3767   -2.9409    0.1764 C.ar      1 <0>         0.1559
     11 C8         -2.2937   -4.3201    0.2689 C.ar      1 <0>        -0.2088
     12 C9         -1.0570   -4.9432    0.2656 C.ar      1 <0>         0.1570
     13 C10         0.0983   -4.1891    0.1637 C.ar      1 <0>        -0.1953
     14 F1         -0.9790   -6.2889    0.3564 F         1 <0>        -0.1254
     15 F2         -3.5845   -2.3356    0.1803 F         1 <0>        -0.1254
     16 Cl1         3.6696   -0.5132   -0.6102 Cl        1 <0>        -0.0119
     17 H1         -0.4624    1.1181    2.6251 H         1 <0>         0.1853
     18 H2          1.5016    2.5559    2.2775 H         1 <0>         0.1827
     19 H3          1.9416   -2.3751   -0.5253 H         1 <0>         0.4285
     20 H4         -1.2890   -1.1068    0.0092 H         1 <0>         0.1492
     21 H5         -3.1948   -4.9107    0.3440 H         1 <0>         0.1515
     22 H6          1.0624   -4.6758    0.1567 H         1 <0>         0.1469
@<TRIPOS>BOND
     1    1    6 ar
     2    1    2 ar
     3    1   17 1
     4    2    3 ar
     5    2   18 1
     6    3    4 ar
     7    4    5 ar
     8    4   16 1
     9    5    6 ar
    10    5    7 1
    11    7    8 1
    12    7   19 1
    13    8   13 ar
    14    8    9 ar
    15    9   10 ar
    16    9   20 1
    17   10   11 ar
    18   10   15 1
    19   11   12 ar
    20   11   21 1
    21   12   13 ar
    22   12   14 1
    23   13   22 1
@<TRIPOS>MOLECULE
ZINC54911406
   40    42     0     0     0
SMALL
USER_CHARGES

@<TRIPOS>ATOM
      1 C1         -0.0187    1.5258    0.0104 C.3       1 <0>        -0.1778
      2 C2          0.0021   -0.0041    0.0020 C.3       1 <0>         0.2048
      3 H1         -1.0205   -0.3814    0.0098 H         1 <0>         0.1074
      4 C3          0.7309   -0.5033    1.2229 C.2       1 <0>        -0.2857
      5 C4          2.0620   -0.5980    1.4557 C.2       1 <0>         0.0949
      6 N1          2.4341   -1.0780    2.6292 N.2       1 <0>        -0.5930
      7 C5          1.5437   -1.4453    3.5261 C.2       1 <0>         0.3282
      8 S1          0.0778   -1.1253    2.7637 S.3       1 <0>         0.0799
      9 N2          1.7606   -1.9642    4.7930 N.pl3     1 <0>        -0.5623
     10 C6          0.6294   -2.3257    5.6584 C.3       1 <0>         0.1245
     11 C7          0.7921   -1.6134    7.0045 C.3       1 <0>        -0.1356
     12 C8          2.1638   -1.9507    7.5949 C.3       1 <0>        -0.0819
     13 H2          2.2481   -3.0292    7.7288 H         1 <0>         0.0736
     14 C9          2.3149   -1.2528    8.9493 C.3       1 <0>        -0.1135
     15 C10         2.1783    0.2592    8.7586 C.3       1 <0>        -0.1224
     16 C11         3.2679    0.7553    7.8062 C.3       1 <0>        -0.1194
     17 C12         3.1242    0.0530    6.4543 C.3       1 <0>        -0.1104
     18 C13         3.2619   -1.4649    6.6456 C.3       1 <0>        -0.0982
     19 H3          4.2385   -1.6881    7.0752 H         1 <0>         0.0846
     20 C14         3.1260   -2.1694    5.2950 C.3       1 <0>         0.1323
     21 O1          0.6709   -0.4649   -1.1737 O.3       1 <0>        -0.5495
     22 H4          1.0039    1.9031    0.0027 H         1 <0>         0.0615
     23 H5         -0.5459    1.8868   -0.8726 H         1 <0>         0.0711
     24 H6         -0.5289    1.8773    0.9072 H         1 <0>         0.0680
     25 H7          2.7870   -0.2950    0.7147 H         1 <0>         0.1646
     26 H8         -0.3037   -2.0130    5.1898 H         1 <0>         0.0804
     27 H9          0.6190   -3.4044    5.8146 H         1 <0>         0.0774
     28 H10         0.7144   -0.5361    6.8576 H         1 <0>         0.0778
     29 H11         0.0105   -1.9448    7.6881 H         1 <0>         0.0805
     30 H12         1.5388   -1.6052    9.6286 H         1 <0>         0.0640
     31 H13         3.2955   -1.4794    9.3678 H         1 <0>         0.0642
     32 H14         1.1983    0.4852    8.3384 H         1 <0>         0.0630
     33 H15         2.2838    0.7577    9.7222 H         1 <0>         0.0611
     34 H16         3.1674    1.8319    7.6687 H         1 <0>         0.0605
     35 H17         4.2480    0.5332    8.2284 H         1 <0>         0.0616
     36 H18         2.1452    0.2771    6.0306 H         1 <0>         0.0628
     37 H19         3.9027    0.4048    5.7773 H         1 <0>         0.0603
     38 H20         3.3130   -3.2360    5.4190 H         1 <0>         0.0685
     39 H21         3.8419   -1.7510    4.5875 H         1 <0>         0.0954
     40 H22         1.5879   -0.1667   -1.2470 H         1 <0>         0.3770
@<TRIPOS>BOND
     1    1    2 1
     2    1   22 1
     3    1   23 1
     4    1   24 1
     5    2    3 1
     6    2    4 1
     7    2   21 1
     8    4    8 1
     9    4    5 2
    10    5    6 1
    11    5   25 1
    12    6    7 2
    13    7    8 1
    14    7    9 1
    15    9   20 1
    16    9   10 1
    17   10   11 1
    18   10   26 1
    19   10   27 1
    20   11   12 1
    21   11   28 1
    22   11   29 1
    23   12   13 1
    24   12   18 1
    25   12   14 1
    26   14   15 1
    27   14   30 1
    28   14   31 1
    29   15   16 1
    30   15   32 1
    31   15   33 1
    32   16   17 1
    33   16   34 1
    34   16   35 1
    35   17   18 1
    36   17   36 1
    37   17   37 1
    38   18   19 1
    39   18   20 1
    40   20   38 1
    41   20   39 1
    42   21   40 1
@<TRIPOS>MOLECULE
ZINC01585537
   30    30     0     0     0
SMALL
USER_CHARGES
4-tert-butylpiperidine
@<TRIPOS>ATOM
      1 C1         -0.0187    1.5258    0.0104 C.3       1 <0>        -0.1508
      2 C2          0.0021   -0.0041    0.0020 C.3       1 <0>        -0.0606
      3 C3          0.7421   -0.5109    1.2415 C.3       1 <0>        -0.1536
      4 C4         -1.4333   -0.5336    0.0129 C.3       1 <0>        -0.1508
      5 C5          0.7182   -0.4975   -1.2568 C.3       1 <0>        -0.0902
      6 C6          0.7466   -2.0284   -1.2625 C.3       1 <0>        -0.1507
      7 C7          1.5168   -2.5149   -2.4922 C.3       1 <0>        -0.0028
      8 C8          2.8843   -0.5143   -2.4984 C.3       1 <0>        -0.0027
      9 C9          2.1549    0.0319   -1.2689 C.3       1 <0>        -0.1509
     10 H1          1.0039    1.9031    0.0027 H         1 <0>         0.0578
     11 H2         -0.5459    1.8868   -0.8726 H         1 <0>         0.0593
     12 H3         -0.5289    1.8773    0.9072 H         1 <0>         0.0642
     13 H4          0.2319   -0.1594    2.1383 H         1 <0>         0.0650
     14 H5          0.7568   -1.6008    1.2356 H         1 <0>         0.0575
     15 H6          1.7647   -0.1336    1.2338 H         1 <0>         0.0575
     16 H7         -1.9605   -0.1726   -0.8702 H         1 <0>         0.0593
     17 H8         -1.4185   -1.6235    0.0069 H         1 <0>         0.0578
     18 H9         -1.9435   -0.1821    0.9097 H         1 <0>         0.0643
     19 H10         0.1904   -0.1387   -2.1404 H         1 <0>         0.0885
     20 H11         1.2399   -2.3866   -0.3589 H         1 <0>         0.0920
     21 H12        -0.2734   -2.4112   -1.2971 H         1 <0>         0.1139
     22 H13         1.0153   -2.1679   -3.3956 H         1 <0>         0.1286
     23 H14         1.5512   -3.6043   -2.4914 H         1 <0>         0.1310
     24 H15         2.3764   -0.1768   -3.4017 H         1 <0>         0.1286
     25 H16         3.9120   -0.1509   -2.5022 H         1 <0>         0.1310
     26 H17         2.1411    1.1211   -1.3080 H         1 <0>         0.1139
     27 H18         2.6702   -0.2933   -0.3650 H         1 <0>         0.0920
     28 N1          2.8948   -1.9890   -2.4562 N.4       1 <0>        -0.5163
     29 H19         3.4146   -2.3469   -3.2662 H         1 <0>         0.4355
     30 H20         3.3528   -2.2994   -1.5913 H         1 <0>         0.4316
@<TRIPOS>BOND
     1    1    2 1
     2    1   10 1
     3    1   11 1
     4    1   12 1
     5    2    3 1
     6    2    4 1
     7    2    5 1
     8    3   13 1
     9    3   14 1
    10    3   15 1
    11    4   16 1
    12    4   17 1
    13    4   18 1
    14    5    9 1
    15    5    6 1
    16    5   19 1
    17    6    7 1
    18    6   20 1
    19    6   21 1
    20    7   22 1
    21    7   23 1
    22    7   28 1
    23    8    9 1
    24    8   24 1
    25    8   25 1
    26    8   28 1
    27    9   26 1
    28    9   27 1
    29   28   29 1
    30   28   30 1
@<TRIPOS>MOLECULE
ZINC20084377
   28    28     0     0     0
SMALL
USER_CHARGES
N-[[(1S)-1-cyclohex-3-enyl]methyl]-2,2,2-trifluoro-ethanamine
@<TRIPOS>ATOM
      1 C1          2.4443    1.6967   -0.0019 C.3       1 <0>        -0.1012
      2 C2          2.4405    0.2256   -0.4231 C.3       1 <0>        -0.1138
      3 C3          1.3859   -0.5147    0.4093 C.3       1 <0>        -0.1131
      4 H1          1.5531   -0.3357    1.4817 H         1 <0>         0.1000
      5 C4          0.0021   -0.0041    0.0020 C.3       1 <0>        -0.1012
      6 C5         -0.0183    1.4964    0.0103 C.2       1 <0>        -0.1727
      7 C6          1.0439    2.2362    0.0041 C.2       1 <0>        -0.1387
      8 C7          1.4796   -2.0177    0.1390 C.3       1 <0>         0.0004
      9 N1          0.5333   -2.7312    1.0071 N.4       1 <0>        -0.5432
     10 C8          0.5956   -4.1803    0.7747 C.3       1 <0>        -0.0514
     11 C9         -0.4015   -4.8877    1.6947 C.3       1 <0>         0.4471
     12 F1         -1.6943   -4.4270    1.4232 F         1 <0>        -0.1675
     13 F2         -0.3422   -6.2678    1.4734 F         1 <0>        -0.1459
     14 F3         -0.0799   -4.6150    3.0286 F         1 <0>        -0.1671
     15 H2          3.0563    2.2732   -0.7112 H         1 <0>         0.0875
     16 H3          2.8744    1.7818    1.0070 H         1 <0>         0.0828
     17 H4          2.1953    0.1511   -1.4928 H         1 <0>         0.0792
     18 H5          3.4346   -0.2098   -0.2437 H         1 <0>         0.0797
     19 H6         -0.2376   -0.3623   -1.0100 H         1 <0>         0.0874
     20 H7         -0.7504   -0.3788    0.7114 H         1 <0>         0.0706
     21 H8         -1.0140    1.9638    0.0224 H         1 <0>         0.1157
     22 H9          0.9508    3.3323    0.0030 H         1 <0>         0.1158
     23 H10         1.2328   -2.2169   -0.9143 H         1 <0>         0.1371
     24 H11         2.5023   -2.3648    0.3479 H         1 <0>         0.1387
     25 H12         0.7801   -2.5319    2.0604 H         1 <0>         0.4603
     26 H13         0.3426   -4.3946   -0.2741 H         1 <0>         0.1776
     27 H14         1.6121   -4.5425    0.9880 H         1 <0>         0.1782
     28 H15        -0.4894   -2.3841    0.7981 H         1 <0>         0.4578
@<TRIPOS>BOND
     1    1    7 1
     2    1    2 1
     3    1   15 1
     4    1   16 1
     5    2    3 1
     6    2   17 1
     7    2   18 1
     8    3    4 1
     9    3    5 1
    10    3    8 1
    11    5    6 1
    12    5   19 1
    13    5   20 1
    14    6    7 2
    15    6   21 1
    16    7   22 1
    17    8    9 1
    18    8   23 1
    19    8   24 1
    20    9   10 1
    21    9   25 1
    22    9   28 1
    23   10   11 1
    24   10   26 1
    25   10   27 1
    26   11   12 1
    27   11   13 1
    28   11   14 1
@<TRIPOS>MOLECULE
ZINC37468875
   30    30     0     0     0
SMALL
USER_CHARGES

@<TRIPOS>ATOM
      1 C1         -2.4475    1.5235   -1.0784 C.3       1 <0>        -0.1544
      2 C2         -1.9747    0.0893   -1.3242 C.3       1 <0>        -0.0909
      3 C3         -0.8073    0.0995   -2.3131 C.3       1 <0>        -0.1596
      4 C4         -1.5179   -0.5308   -0.0022 C.3       1 <0>        -0.1377
      5 C5         -1.1926   -2.0101   -0.2182 C.3       1 <0>         0.0547
      6 H1         -0.4661   -2.1083   -1.0248 H         1 <0>         0.1452
      7 C6         -2.4711   -2.7646   -0.5885 C.3       1 <0>        -0.1873
      8 C7         -2.9588   -3.8453    0.3785 C.3       1 <0>        -0.1861
      9 C8         -2.3363   -4.2423   -0.9616 C.3       1 <0>        -0.1683
     10 N1         -0.6319   -2.5736    1.0171 N.4       1 <0>        -0.5111
     11 C9          0.6586   -1.9338    1.3055 C.3       1 <0>        -0.0523
     12 H2         -2.7729    1.9652   -2.0202 H         1 <0>         0.0675
     13 H3         -3.2792    1.5162   -0.3739 H         1 <0>         0.0602
     14 H4         -1.6271    2.1108   -0.6659 H         1 <0>         0.0600
     15 H5         -2.7951   -0.4980   -1.7366 H         1 <0>         0.0826
     16 H6         -0.4242   -0.9139   -2.4334 H         1 <0>         0.0529
     17 H7         -1.1509    0.4749   -3.2770 H         1 <0>         0.0689
     18 H8         -0.0151    0.7447   -1.9333 H         1 <0>         0.0618
     19 H9         -0.6284   -0.0115    0.3545 H         1 <0>         0.0897
     20 H10        -2.3137   -0.4379    0.7369 H         1 <0>         0.0908
     21 H11        -3.2267   -2.1800   -1.1131 H         1 <0>         0.1464
     22 H12        -2.3689   -4.0187    1.2785 H         1 <0>         0.0889
     23 H13        -4.0357   -3.9717    0.4903 H         1 <0>         0.1215
     24 H14        -3.0036   -4.6299   -1.7314 H         1 <0>         0.1184
     25 H15        -1.3369   -4.6769   -0.9432 H         1 <0>         0.1023
     26 H16        -1.2684   -2.4069    1.7821 H         1 <0>         0.4292
     27 H17         0.4989   -0.8796    1.5321 H         1 <0>         0.1263
     28 H18         1.1235   -2.4230    2.1615 H         1 <0>         0.1285
     29 H19         1.3110   -2.0239    0.4370 H         1 <0>         0.1245
     30 H20        -0.4966   -3.5669    0.9026 H         1 <0>         0.4276
@<TRIPOS>BOND
     1    1    2 1
     2    1   12 1
     3    1   13 1
     4    1   14 1
     5    2    3 1
     6    2    4 1
     7    2   15 1
     8    3   16 1
     9    3   17 1
    10    3   18 1
    11    4    5 1
    12    4   19 1
    13    4   20 1
    14    5    6 1
    15    5    7 1
    16    5   10 1
    17    7    9 1
    18    7    8 1
    19    7   21 1
    20    8    9 1
    21    8   22 1
    22    8   23 1
    23    9   24 1
    24    9   25 1
    25   10   11 1
    26   10   26 1
    27   10   30 1
    28   11   27 1
    29   11   28 1
    30   11   29 1
@<TRIPOS>MOLECULE
ZINC49730498
   30    30     0     0     0
SMALL
USER_CHARGES

@<TRIPOS>ATOM
      1 C1         -0.0187    1.5258    0.0104 C.3       1 <0>        -0.1787
      2 C2          0.0021   -0.0041    0.0020 C.3       1 <0>         0.0554
      3 C3          0.7421   -0.5109    1.2415 C.3       1 <0>        -0.1787
      4 C4         -1.4333   -0.5336    0.0129 C.3       1 <0>        -0.1775
      5 N1          0.6897   -0.4778   -1.2066 N.4       1 <0>        -0.5048
      6 C5          2.0678    0.0307   -1.2170 C.3       1 <0>        -0.0154
      7 C6          2.7840   -0.4628   -2.4758 C.3       1 <0>        -0.1144
      8 C7          4.2193    0.0668   -2.4867 C.3       1 <0>        -0.1684
      9 C8          4.6112    1.0224   -3.6155 C.3       1 <0>        -0.1749
     10 C9          5.1409   -0.4130   -3.6098 C.3       1 <0>        -0.1688
     11 H1          1.0039    1.9031    0.0027 H         1 <0>         0.0825
     12 H2         -0.5459    1.8868   -0.8726 H         1 <0>         0.0820
     13 H3         -0.5289    1.8773    0.9072 H         1 <0>         0.1054
     14 H4          0.2319   -0.1594    2.1383 H         1 <0>         0.1055
     15 H5          0.7568   -1.6008    1.2356 H         1 <0>         0.0821
     16 H6          1.7647   -0.1336    1.2338 H         1 <0>         0.0823
     17 H7         -1.9605   -0.1726   -0.8702 H         1 <0>         0.0820
     18 H8         -1.4185   -1.6235    0.0069 H         1 <0>         0.0820
     19 H9         -1.9435   -0.1821    0.9097 H         1 <0>         0.1064
     20 H10         0.7033   -1.4867   -1.2121 H         1 <0>         0.4263
     21 H11         2.0530    1.1205   -1.2110 H         1 <0>         0.1351
     22 H12         2.5950   -0.3304   -0.3340 H         1 <0>         0.1342
     23 H13         2.7987   -1.5526   -2.4818 H         1 <0>         0.0892
     24 H14         2.2568   -0.1017   -3.3589 H         1 <0>         0.0868
     25 H15         4.6658    0.2350   -1.5066 H         1 <0>         0.1140
     26 H16         3.8465    1.2738   -4.3503 H         1 <0>         0.0985
     27 H17         5.3156    1.8197   -3.3781 H         1 <0>         0.1023
     28 H18         6.1937   -0.5600   -3.3688 H         1 <0>         0.1039
     29 H19         4.7246   -1.1059   -4.3410 H         1 <0>         0.0996
     30 H20         0.2017   -0.1436   -2.0240 H         1 <0>         0.4262
@<TRIPOS>BOND
     1    1    2 1
     2    1   11 1
     3    1   12 1
     4    1   13 1
     5    2    3 1
     6    2    4 1
     7    2    5 1
     8    3   14 1
     9    3   15 1
    10    3   16 1
    11    4   17 1
    12    4   18 1
    13    4   19 1
    14    5    6 1
    15    5   20 1
    16    5   30 1
    17    6    7 1
    18    6   21 1
    19    6   22 1
    20    7    8 1
    21    7   23 1
    22    7   24 1
    23    8   10 1
    24    8    9 1
    25    8   25 1
    26    9   10 1
    27    9   26 1
    28    9   27 1
    29   10   28 1
    30   10   29 1
@<TRIPOS>MOLECULE
ZINC54639112
   38    40     0     0     0
SMALL
USER_CHARGES

@<TRIPOS>ATOM
      1 C1          0.0946    1.5617    0.0314 C.3       1 <0>        -0.1672
      2 C2          0.0032    0.0347    0.0022 C.3       1 <0>        -0.1261
      3 C3          0.6033   -0.4873   -1.3048 C.3       1 <0>        -0.0835
      4 C4         -0.2298   -0.0005   -2.5125 C.3       1 <0>        -0.1077
      5 C5         -0.7480   -1.3076   -3.1865 C.3       1 <0>        -0.1012
      6 H1         -1.6133   -1.1960   -3.8399 H         1 <0>         0.1091
      7 C6          0.5199   -1.9407   -3.8367 C.3       1 <0>        -0.1259
      8 C7          1.3702   -2.4280   -2.6412 C.3       1 <0>        -0.1366
      9 C8          0.5099   -2.0427   -1.3628 C.3       1 <0>        -0.1207
     10 H2          0.7486   -2.5691   -0.4387 H         1 <0>         0.1045
     11 C9         -0.9428   -2.2252   -1.9281 C.3       1 <0>        -0.1174
     12 C10         2.0585   -0.0349   -1.4404 C.3       1 <0>        -0.0040
     13 N1          2.8680   -0.6681   -0.3908 N.4       1 <0>        -0.4799
     14 C11         4.2815   -0.3179   -0.5843 C.3       1 <0>        -0.0858
     15 C12         5.2549   -1.4563   -0.8967 C.3       1 <0>        -0.1546
     16 C13         5.2773   -0.7863    0.4787 C.3       1 <0>        -0.1541
     17 H3          1.1415    1.8622    0.0754 H         1 <0>         0.0495
     18 H4         -0.3632    1.9704   -0.8694 H         1 <0>         0.0701
     19 H5         -0.4292    1.9403    0.9091 H         1 <0>         0.0703
     20 H6          0.5555   -0.3786    0.8462 H         1 <0>         0.0584
     21 H7         -1.0418   -0.2681    0.0687 H         1 <0>         0.0908
     22 H8         -1.0669    0.6107   -2.1751 H         1 <0>         0.0848
     23 H9          0.3972    0.5613   -3.2049 H         1 <0>         0.0755
     24 H10         0.2415   -2.7811   -4.4725 H         1 <0>         0.0744
     25 H11         1.0660   -1.1927   -4.4114 H         1 <0>         0.0692
     26 H12         1.5098   -3.5080   -2.6894 H         1 <0>         0.0783
     27 H13         2.3343   -1.9196   -2.6283 H         1 <0>         0.0587
     28 H14        -1.6985   -1.8317   -1.2483 H         1 <0>         0.0790
     29 H15        -1.1470   -3.2597   -2.2043 H         1 <0>         0.0810
     30 H16         2.4400   -0.3264   -2.4190 H         1 <0>         0.1386
     31 H17         2.1132    1.0489   -1.3372 H         1 <0>         0.1350
     32 H18         2.5614   -0.3417    0.5133 H         1 <0>         0.4263
     33 H19         4.4664    0.6467   -1.0569 H         1 <0>         0.1776
     34 H20         4.8466   -2.4650   -0.9586 H         1 <0>         0.1205
     35 H21         6.0805   -1.2406   -1.5750 H         1 <0>         0.1346
     36 H22         6.1175   -0.1299    0.7052 H         1 <0>         0.1350
     37 H23         4.8836   -1.3543    1.3216 H         1 <0>         0.1207
     38 H24         2.7598   -1.6700   -0.4411 H         1 <0>         0.4229
@<TRIPOS>BOND
     1    1    2 1
     2    1   17 1
     3    1   18 1
     4    1   19 1
     5    2    3 1
     6    2   20 1
     7    2   21 1
     8    3    9 1
     9    3    4 1
    10    3   12 1
    11    4    5 1
    12    4   22 1
    13    4   23 1
    14    5    6 1
    15    5   11 1
    16    5    7 1
    17    7    8 1
    18    7   24 1
    19    7   25 1
    20    8    9 1
    21    8   26 1
    22    8   27 1
    23    9   10 1
    24    9   11 1
    25   11   28 1
    26   11   29 1
    27   12   13 1
    28   12   30 1
    29   12   31 1
    30   13   14 1
    31   13   32 1
    32   13   38 1
    33   14   16 1
    34   14   15 1
    35   14   33 1
    36   15   16 1
    37   15   34 1
    38   15   35 1
    39   16   36 1
    40   16   37 1
@<TRIPOS>MOLECULE
ZINC19881175
   34    34     0     0     0
SMALL
USER_CHARGES
(1S,2R)-N-(2-methoxyethyl)-2-methyl-cyclohexan-1-amine
@<TRIPOS>ATOM
      1 C1         -3.8815    0.5664   -3.4117 C.3       1 <0>        -0.1758
      2 C2         -3.9524   -0.7912   -2.7098 C.3       1 <0>        -0.1053
      3 H1         -3.2990   -1.5073   -3.2296 H         1 <0>         0.0933
      4 C3         -5.3935   -1.3042   -2.7358 C.3       1 <0>        -0.1152
      5 C4         -6.3025   -0.3082   -2.0128 C.3       1 <0>        -0.1342
      6 C5         -5.8412   -0.1569   -0.5619 C.3       1 <0>        -0.1180
      7 C6         -4.4000    0.3562   -0.5359 C.3       1 <0>        -0.1417
      8 C7         -3.4910   -0.6398   -1.2589 C.3       1 <0>         0.0395
      9 H2         -3.5008   -1.6134   -0.7471 H         1 <0>         0.1320
     10 N1         -2.1072   -0.1473   -1.2339 N.4       1 <0>        -0.5396
     11 C8         -1.4333   -0.5336    0.0129 C.3       1 <0>         0.0013
     12 C9          0.0021   -0.0041    0.0020 C.3       1 <0>         0.0261
     13 O1         -0.0173    1.4248    0.0099 O.3       1 <0>        -0.4031
     14 C10         1.2801    2.0237    0.0007 C.3       1 <0>         0.0270
     15 H3         -4.2132    0.4576   -4.4548 H         1 <0>         0.0826
     16 H4         -2.8453    0.9352   -3.3930 H         1 <0>         0.0519
     17 H5         -4.5350    1.2825   -2.8919 H         1 <0>         0.0779
     18 H6         -5.7252   -1.4130   -3.7789 H         1 <0>         0.0845
     19 H7         -5.4444   -2.2803   -2.2312 H         1 <0>         0.0743
     20 H8         -6.2515    0.6679   -2.5174 H         1 <0>         0.0734
     21 H9         -7.3387   -0.6770   -2.0315 H         1 <0>         0.0790
     22 H10        -6.4948    0.5591   -0.0421 H         1 <0>         0.0842
     23 H11        -5.8921   -1.1330   -0.0573 H         1 <0>         0.0736
     24 H12        -4.3492    1.3323   -1.0406 H         1 <0>         0.0905
     25 H13        -4.0683    0.4651    0.5072 H         1 <0>         0.0847
     26 H14        -1.5511   -0.5732   -2.0820 H         1 <0>         0.4446
     27 H15        -1.9750   -0.1069    0.8699 H         1 <0>         0.1355
     28 H16        -1.4190   -1.6303    0.0974 H         1 <0>         0.1409
     29 H17         0.5341   -0.3686    0.8931 H         1 <0>         0.0973
     30 H18         0.5169   -0.3589   -0.9030 H         1 <0>         0.0748
     31 H19         1.1784    3.1190    0.0076 H         1 <0>         0.1016
     32 H20         1.8217    1.7114   -0.9044 H         1 <0>         0.0528
     33 H21         1.8389    1.7017    0.8918 H         1 <0>         0.0559
     34 H22        -2.1071    0.9501   -1.3095 H         1 <0>         0.4535
@<TRIPOS>BOND
     1    1    2 1
     2    1   15 1
     3    1   16 1
     4    1   17 1
     5    2    3 1
     6    2    8 1
     7    2    4 1
     8    4    5 1
     9    4   18 1
    10    4   19 1
    11    5    6 1
    12    5   20 1
    13    5   21 1
    14    6    7 1
    15    6   22 1
    16    6   23 1
    17    7    8 1
    18    7   24 1
    19    7   25 1
    20    8    9 1
    21    8   10 1
    22   10   11 1
    23   10   26 1
    24   10   34 1
    25   11   12 1
    26   11   27 1
    27   11   28 1
    28   12   13 1
    29   12   29 1
    30   12   30 1
    31   13   14 1
    32   14   31 1
    33   14   32 1
    34   14   33 1
@<TRIPOS>MOLECULE
ZINC37467933
   34    34     0     0     0
SMALL
USER_CHARGES

@<TRIPOS>ATOM
      1 C1         -0.3296    1.3667   -0.2660 C.3       1 <0>        -0.1740
      2 C2         -0.2675   -0.1615   -0.2254 C.3       1 <0>        -0.1179
      3 C3         -1.6592   -0.7359   -0.4975 C.3       1 <0>        -0.1676
      4 C4          0.7081   -0.6608   -1.2931 C.3       1 <0>         0.0307
      5 H1          0.6860   -1.7502   -1.3244 H         1 <0>         0.1481
      6 C5          2.1229   -0.1890   -0.9518 C.3       1 <0>        -0.1571
      7 C6          2.5868   -0.8617    0.3417 C.3       1 <0>         0.0826
      8 H2          1.8845   -0.6410    1.1455 H         1 <0>         0.0929
      9 C7          3.9940   -0.3526    0.7213 C.3       1 <0>        -0.1527
     10 C8          4.6807   -1.6429    1.2462 C.3       1 <0>        -0.1589
     11 C9          4.0330   -2.7135    0.3324 C.3       1 <0>         0.0487
     12 O1          2.6745   -2.2782    0.1483 O.3       1 <0>        -0.3810
     13 N1          0.3160   -0.1252   -2.6035 N.4       1 <0>        -0.5097
     14 C10         1.1593   -0.7212   -3.6483 C.3       1 <0>        -0.0504
     15 H3          0.6619    1.7759   -0.0722 H         1 <0>         0.0738
     16 H4         -0.6704    1.6904   -1.2495 H         1 <0>         0.0513
     17 H5         -1.0246    1.7224    0.4946 H         1 <0>         0.0864
     18 H6          0.0733   -0.4853    0.7580 H         1 <0>         0.1195
     19 H7         -1.9999   -0.4122   -1.4810 H         1 <0>         0.0509
     20 H8         -1.6149   -1.8247   -0.4686 H         1 <0>         0.0741
     21 H9         -2.3542   -0.3802    0.2631 H         1 <0>         0.0841
     22 H10         2.8004   -0.4555   -1.7631 H         1 <0>         0.0923
     23 H11         2.1230    0.8929   -0.8190 H         1 <0>         0.1002
     24 H12         4.5151    0.0357   -0.1538 H         1 <0>         0.0810
     25 H13         3.9350    0.4020    1.5056 H         1 <0>         0.0902
     26 H14         5.7599   -1.6013    1.0987 H         1 <0>         0.0909
     27 H15         4.4358   -1.8200    2.2934 H         1 <0>         0.0847
     28 H16         4.5505   -2.7561   -0.6260 H         1 <0>         0.0648
     29 H17         4.0543   -3.6888    0.8184 H         1 <0>         0.0939
     30 H18        -0.6511   -0.3500   -2.7831 H         1 <0>         0.4280
     31 H19         0.8017   -0.4049   -4.6282 H         1 <0>         0.1269
     32 H20         2.1900   -0.3929   -3.5145 H         1 <0>         0.1230
     33 H21         1.1119   -1.8078   -3.5776 H         1 <0>         0.1252
     34 H22         0.4346    0.8768   -2.6065 H         1 <0>         0.4252
@<TRIPOS>BOND
     1    1    2 1
     2    1   15 1
     3    1   16 1
     4    1   17 1
     5    2    3 1
     6    2    4 1
     7    2   18 1
     8    3   19 1
     9    3   20 1
    10    3   21 1
    11    4    5 1
    12    4    6 1
    13    4   13 1
    14    6    7 1
    15    6   22 1
    16    6   23 1
    17    7    8 1
    18    7   12 1
    19    7    9 1
    20    9   10 1
    21    9   24 1
    22    9   25 1
    23   10   11 1
    24   10   26 1
    25   10   27 1
    26   11   12 1
    27   11   28 1
    28   11   29 1
    29   13   14 1
    30   13   30 1
    31   13   34 1
    32   14   31 1
    33   14   32 1
    34   14   33 1
@<TRIPOS>MOLECULE
ZINC41049505
   31    31     0     0     0
SMALL
USER_CHARGES

@<TRIPOS>ATOM
      1 C1         -0.0187    1.5258    0.0104 C.3       1 <0>        -0.1574
      2 C2          0.0021   -0.0041    0.0020 C.3       1 <0>        -0.1103
      3 C3          0.7421   -0.5109    1.2415 C.3       1 <0>        -0.1705
      4 C4         -1.4333   -0.5336    0.0129 C.3       1 <0>         0.1466
      5 H1         -1.9435   -0.1821    0.9097 H         1 <0>         0.1783
      6 C5         -2.1452   -0.0460   -1.1797 C.1       1 <0>         0.1470
      7 N1         -2.6947    0.3303   -2.1000 N.1       1 <0>        -0.3116
      8 N2         -1.4134   -2.0025    0.0048 N.4       1 <0>        -0.5031
      9 C6         -2.7851   -2.5115    0.1359 C.3       1 <0>         0.0115
     10 C7         -3.3372   -2.1873    1.5394 C.3       1 <0>        -0.1452
     11 C8         -4.1851   -3.4293    1.9103 C.3       1 <0>        -0.1244
     12 C9         -3.3501   -4.5984    1.3315 C.3       1 <0>        -0.1305
     13 C10        -2.7933   -4.0446    0.0037 C.3       1 <0>        -0.1424
     14 H2          1.0039    1.9031    0.0027 H         1 <0>         0.0886
     15 H3         -0.5459    1.8868   -0.8726 H         1 <0>         0.0654
     16 H4         -0.5289    1.8773    0.9072 H         1 <0>         0.0755
     17 H5          0.5123   -0.3556   -0.8948 H         1 <0>         0.1063
     18 H6          0.2319   -0.1594    2.1383 H         1 <0>         0.0807
     19 H7          0.7568   -1.6008    1.2356 H         1 <0>         0.0565
     20 H8          1.7647   -0.1336    1.2338 H         1 <0>         0.0957
     21 H9         -1.0151   -2.3287   -0.8630 H         1 <0>         0.4328
     22 H10        -3.4225   -2.0674   -0.6287 H         1 <0>         0.1392
     23 H11        -2.5208   -2.0568    2.2497 H         1 <0>         0.0931
     24 H12        -3.9621   -1.2948    1.5067 H         1 <0>         0.0994
     25 H13        -4.2817   -3.5221    2.9920 H         1 <0>         0.0918
     26 H14        -5.1656   -3.3832    1.4364 H         1 <0>         0.0843
     27 H15        -2.5358   -4.8573    2.0082 H         1 <0>         0.0806
     28 H16        -3.9844   -5.4655    1.1470 H         1 <0>         0.0895
     29 H17        -3.4354   -4.3445   -0.8245 H         1 <0>         0.1053
     30 H18        -1.7795   -4.4108   -0.1577 H         1 <0>         0.0887
     31 H19        -0.8558   -2.3355    0.7770 H         1 <0>         0.4383
@<TRIPOS>BOND
     1    1    2 1
     2    1   14 1
     3    1   15 1
     4    1   16 1
     5    2    3 1
     6    2    4 1
     7    2   17 1
     8    3   18 1
     9    3   19 1
    10    3   20 1
    11    4    5 1
    12    4    6 1
    13    4    8 1
    14    6    7 3
    15    8    9 1
    16    8   21 1
    17    8   31 1
    18    9   13 1
    19    9   10 1
    20    9   22 1
    21   10   11 1
    22   10   23 1
    23   10   24 1
    24   11   12 1
    25   11   25 1
    26   11   26 1
    27   12   13 1
    28   12   27 1
    29   12   28 1
    30   13   29 1
    31   13   30 1
@<TRIPOS>MOLECULE
ZINC50519903
   35    36     0     0     0
SMALL
USER_CHARGES

@<TRIPOS>ATOM
      1 C1         -0.0187    1.5258    0.0104 C.3       1 <0>        -0.1886
      2 C2          0.0021   -0.0041    0.0020 C.3       1 <0>        -0.0128
      3 N1          0.6897   -0.4778   -1.2066 N.4       1 <0>        -0.4963
      4 C3          0.7096   -1.9467   -1.2147 C.3       1 <0>         0.0274
      5 H1         -0.3033   -2.3341   -1.1053 H         1 <0>         0.1468
      6 C4          1.6018   -2.4694   -0.0698 C.3       1 <0>        -0.1416
      7 C5          2.3035   -3.7119   -0.6722 C.3       1 <0>        -0.1229
      8 C6          2.5808   -3.2738   -2.1317 C.3       1 <0>        -0.1504
      9 C7          1.3309   -2.4582   -2.5262 C.3       1 <0>         0.0667
     10 H2          0.6198   -3.0946   -3.0529 H         1 <0>         0.1012
     11 O1          1.7068   -1.3548   -3.3528 O.3       1 <0>        -0.3819
     12 C8          1.6464   -1.6308   -4.7535 C.3       1 <0>         0.0644
     13 C9          0.5480   -0.8452   -5.4893 C.3       1 <0>        -0.1590
     14 C10         1.5917    0.2645   -5.6989 C.3       1 <0>        -0.1395
     15 C11         2.6646   -0.8312   -5.5835 C.3       1 <0>        -0.1404
     16 H3          1.0039    1.9031    0.0027 H         1 <0>         0.0806
     17 H4         -0.5459    1.8868   -0.8726 H         1 <0>         0.0803
     18 H5         -0.5289    1.8773    0.9072 H         1 <0>         0.1069
     19 H6          0.5293   -0.3651    0.8851 H         1 <0>         0.1300
     20 H7         -1.0205   -0.3814    0.0098 H         1 <0>         0.1295
     21 H8          0.2017   -0.1436   -2.0240 H         1 <0>         0.4296
     22 H9          2.3369   -1.7167    0.2149 H         1 <0>         0.0906
     23 H10         0.9932   -2.7536    0.7886 H         1 <0>         0.1016
     24 H11         3.2359   -3.9210   -0.1478 H         1 <0>         0.0930
     25 H12         1.6427   -4.5784   -0.6478 H         1 <0>         0.0855
     26 H13         3.4741   -2.6511   -2.1799 H         1 <0>         0.0901
     27 H14         2.6867   -4.1452   -2.7779 H         1 <0>         0.0890
     28 H15         1.6446   -2.6981   -4.9750 H         1 <0>         0.0856
     29 H16         0.2200   -1.3168   -6.4157 H         1 <0>         0.0988
     30 H17        -0.2815   -0.5489   -4.8473 H         1 <0>         0.0693
     31 H18         1.5448    0.7275   -6.6846 H         1 <0>         0.0756
     32 H19         1.6229    0.9932   -4.8889 H         1 <0>         0.0805
     33 H20         3.5438   -0.5235   -5.0174 H         1 <0>         0.0796
     34 H21         2.9152   -1.2989   -6.5356 H         1 <0>         0.1006
     35 H22         1.6363   -0.1286   -1.2138 H         1 <0>         0.4302
@<TRIPOS>BOND
     1    1    2 1
     2    1   16 1
     3    1   17 1
     4    1   18 1
     5    2    3 1
     6    2   19 1
     7    2   20 1
     8    3    4 1
     9    3   21 1
    10    3   35 1
    11    4    5 1
    12    4    9 1
    13    4    6 1
    14    6    7 1
    15    6   22 1
    16    6   23 1
    17    7    8 1
    18    7   24 1
    19    7   25 1
    20    8    9 1
    21    8   26 1
    22    8   27 1
    23    9   10 1
    24    9   11 1
    25   11   12 1
    26   12   15 1
    27   12   13 1
    28   12   28 1
    29   13   14 1
    30   13   29 1
    31   13   30 1
    32   14   15 1
    33   14   31 1
    34   14   32 1
    35   15   33 1
    36   15   34 1
@<TRIPOS>MOLECULE
ZINC54594777
   35    36     0     0     0
SMALL
USER_CHARGES

@<TRIPOS>ATOM
      1 C1         -0.0187    1.5258    0.0104 C.3       1 <0>        -0.1861
      2 C2          0.0021   -0.0041    0.0020 C.3       1 <0>         0.0234
      3 C3          0.7182   -0.4975   -1.2568 C.3       1 <0>        -0.1845
      4 N1          0.7126   -0.4907    1.1921 N.4       1 <0>        -0.5056
      5 C4         -0.0398   -0.1189    2.3978 C.3       1 <0>         0.0130
      6 C5          0.7001   -0.6257    3.6373 C.3       1 <0>        -0.2068
      7 H1          1.7837   -0.6958    3.5420 H         1 <0>         0.1283
      8 C6         -0.0027   -1.6764    4.4993 C.3       1 <0>        -0.1599
      9 C7          0.1348   -0.2383    5.0052 C.3       1 <0>        -0.1093
     10 H2          0.8465   -0.0538    5.8100 H         1 <0>         0.1261
     11 C8         -1.1272    0.6264    5.0289 C.3       1 <0>        -0.1028
     12 H3         -1.9510    0.1110    4.5351 H         1 <0>         0.0886
     13 C9         -0.8603    1.9933    4.3530 C.3       1 <0>        -0.1568
     14 C10        -1.6210    2.9705    5.2851 C.3       1 <0>         0.0439
     15 O1         -1.4047    2.4177    6.6012 O.3       1 <0>        -0.3713
     16 C11        -1.5074    0.9861    6.4783 C.3       1 <0>         0.0505
     17 H4          1.0039    1.9031    0.0027 H         1 <0>         0.0831
     18 H5         -0.5459    1.8868   -0.8726 H         1 <0>         0.1073
     19 H6         -0.5289    1.8773    0.9072 H         1 <0>         0.0792
     20 H7         -1.0205   -0.3814    0.0098 H         1 <0>         0.1381
     21 H8          1.7408   -0.1202   -1.2645 H         1 <0>         0.0820
     22 H9          0.7330   -1.5874   -1.2628 H         1 <0>         0.0822
     23 H10         0.1910   -0.1364   -2.1398 H         1 <0>         0.1074
     24 H11         0.7982   -1.4950    1.1455 H         1 <0>         0.4291
     25 H12        -0.1324    0.9660    2.4481 H         1 <0>         0.1389
     26 H13        -1.0328   -0.5668    2.3589 H         1 <0>         0.1307
     27 H14        -0.9922   -2.0066    4.1833 H         1 <0>         0.1074
     28 H15         0.6185   -2.4375    4.9714 H         1 <0>         0.1132
     29 H16         0.2060    2.2191    4.3396 H         1 <0>         0.0845
     30 H17        -1.2740    2.0161    3.3448 H         1 <0>         0.0771
     31 H18        -1.1995    3.9733    5.2160 H         1 <0>         0.0986
     32 H19        -2.6838    2.9823    5.0436 H         1 <0>         0.0654
     33 H20        -2.5293    0.6669    6.6835 H         1 <0>         0.0671
     34 H21        -0.8197    0.5033    7.1726 H         1 <0>         0.0913
     35 H22         1.6317   -0.0761    1.2281 H         1 <0>         0.4264
@<TRIPOS>BOND
     1    1    2 1
     2    1   17 1
     3    1   18 1
     4    1   19 1
     5    2    3 1
     6    2    4 1
     7    2   20 1
     8    3   21 1
     9    3   22 1
    10    3   23 1
    11    4    5 1
    12    4   24 1
    13    4   35 1
    14    5    6 1
    15    5   25 1
    16    5   26 1
    17    6    7 1
    18    6    9 1
    19    6    8 1
    20    8    9 1
    21    8   27 1
    22    8   28 1
    23    9   10 1
    24    9   11 1
    25   11   12 1
    26   11   16 1
    27   11   13 1
    28   13   14 1
    29   13   29 1
    30   13   30 1
    31   14   15 1
    32   14   31 1
    33   14   32 1
    34   15   16 1
    35   16   33 1
    36   16   34 1
@<TRIPOS>MOLECULE
ZINC03881395
   43    43     0     0     0
SMALL
USER_CHARGES
1-[1,6-dimethyl-4-(4-methylpent-3-enyl)-1-cyclohex-3-enyl]ethanone
@<TRIPOS>ATOM
      1 C1         -0.8506    4.9513    0.1880 C.3       1 <0>        -0.1585
      2 C2         -0.4295    3.5140    0.5007 C.3       1 <0>        -0.0677
      3 H1         -0.6450    3.2846    1.5443 H         1 <0>         0.0748
      4 C3         -1.1917    2.5458   -0.4067 C.3       1 <0>        -0.0973
      5 C4         -0.6031    1.1690   -0.3058 C.2       1 <0>        -0.1072
      6 C5          0.5669    0.9146    0.1860 C.2       1 <0>        -0.1758
      7 C6          1.4987    1.9611    0.7233 C.3       1 <0>        -0.0727
      8 C7          1.0721    3.3473    0.2355 C.3       1 <0>        -0.1059
      9 C8          1.8511    4.4224    0.9959 C.3       1 <0>        -0.1412
     10 C9          1.3470    3.4716   -1.2410 C.2       1 <0>         0.3689
     11 O1          0.4670    3.8179   -1.9920 O.2       1 <0>        -0.4465
     12 C10         2.7201    3.1638   -1.7803 C.3       1 <0>        -0.1985
     13 C11        -1.4277    0.0099   -0.8036 C.3       1 <0>        -0.0837
     14 C12        -2.3799   -0.4505    0.3019 C.3       1 <0>        -0.0879
     15 C13        -3.2044   -1.6096   -0.1958 C.2       1 <0>        -0.1668
     16 C14        -3.1281   -2.7724    0.4026 C.2       1 <0>        -0.1336
     17 C15        -2.1041   -2.9970    1.4852 C.3       1 <0>        -0.1216
     18 C16        -4.0644   -3.8856    0.0083 C.3       1 <0>        -0.1183
     19 H2         -0.6414    5.1716   -0.8588 H         1 <0>         0.0717
     20 H3         -1.9178    5.0666    0.3774 H         1 <0>         0.0541
     21 H4         -0.2925    5.6396    0.8227 H         1 <0>         0.0555
     22 H5         -2.2388    2.5165   -0.1053 H         1 <0>         0.0704
     23 H6         -1.1244    2.8892   -1.4390 H         1 <0>         0.1004
     24 H7          0.8946   -0.1142    0.2071 H         1 <0>         0.1054
     25 H8          1.4772    1.9390    1.8128 H         1 <0>         0.0829
     26 H9          2.5121    1.7532    0.3796 H         1 <0>         0.0773
     27 H10         2.9187    4.2899    0.8206 H         1 <0>         0.0631
     28 H11         1.5451    5.4084    0.6464 H         1 <0>         0.0653
     29 H12         1.6444    4.3347    2.0626 H         1 <0>         0.0693
     30 H13         2.7738    2.1949   -2.0220 H         1 <0>         0.0858
     31 H14         2.9067    3.7703   -2.6666 H         1 <0>         0.0845
     32 H15         3.4681    3.3908   -1.0206 H         1 <0>         0.0849
     33 H16        -2.0050    0.3220   -1.6738 H         1 <0>         0.0684
     34 H17        -0.7682   -0.8125   -1.0809 H         1 <0>         0.0663
     35 H18        -1.8025   -0.7625    1.1722 H         1 <0>         0.0729
     36 H19        -3.0394    0.3719    0.5792 H         1 <0>         0.0709
     37 H20        -3.8583   -1.4815   -1.0458 H         1 <0>         0.1076
     38 H21        -2.5208   -2.6983    2.4471 H         1 <0>         0.0651
     39 H22        -1.8354   -4.0528    1.5177 H         1 <0>         0.0613
     40 H23        -1.2155   -2.4022    1.2738 H         1 <0>         0.0669
     41 H24        -4.7278   -3.5388   -0.7840 H         1 <0>         0.0601
     42 H25        -3.4859   -4.7374   -0.3490 H         1 <0>         0.0634
     43 H26        -4.6566   -4.1855    0.8729 H         1 <0>         0.0661
@<TRIPOS>BOND
     1    1    2 1
     2    1   19 1
     3    1   20 1
     4    1   21 1
     5    2    3 1
     6    2    8 1
     7    2    4 1
     8    4    5 1
     9    4   22 1
    10    4   23 1
    11    5    6 2
    12    5   13 1
    13    6    7 1
    14    6   24 1
    15    7    8 1
    16    7   25 1
    17    7   26 1
    18    8    9 1
    19    8   10 1
    20    9   27 1
    21    9   28 1
    22    9   29 1
    23   10   11 2
    24   10   12 1
    25   12   30 1
    26   12   31 1
    27   12   32 1
    28   13   14 1
    29   13   33 1
    30   13   34 1
    31   14   15 1
    32   14   35 1
    33   14   36 1
    34   15   16 2
    35   15   37 1
    36   16   17 1
    37   16   18 1
    38   17   38 1
    39   17   39 1
    40   17   40 1
    41   18   41 1
    42   18   42 1
    43   18   43 1
@<TRIPOS>MOLECULE
ZINC05735746
   45    47     0     0     0
SMALL
USER_CHARGES
methoxy-tetramethyl-BLAH
@<TRIPOS>ATOM
      1 C1         -2.1655    2.2808   -3.7379 C.3       1 <0>        -0.1538
      2 C2         -1.8458    3.4883   -2.7360 C.3       1 <0>        -0.0849
      3 H1         -2.7558    3.9991   -2.6393 H         1 <0>         0.0764
      4 C3         -0.7188    4.3724   -3.3478 C.3       1 <0>        -0.1269
      5 C4         -0.1712    5.0296   -2.0879 C.3       1 <0>        -0.1140
      6 C5         -0.0957    3.8732   -1.1351 C.3       1 <0>        -0.0677
      7 H2          0.8587    3.2973   -1.2582 H         1 <0>         0.0670
      8 C6         -1.2405    2.9627   -1.4701 C.3       1 <0>        -0.0567
      9 C7         -0.8693    1.5226   -1.4011 C.3       1 <0>        -0.0833
     10 C8         -0.0871    1.3311   -0.0815 C.3       1 <0>        -0.1233
     11 C9         -0.8446    1.8264    1.1424 C.3       1 <0>         0.1416
     12 C10        -1.2201    3.2845    0.9382 C.3       1 <0>        -0.1046
     13 H3         -1.7796    3.6782    1.8014 H         1 <0>         0.0759
     14 C11        -2.2467    3.2118   -0.2714 C.3       1 <0>        -0.1260
     15 C12        -0.1564    4.1825    0.4094 C.3       1 <0>        -0.0370
     16 C13         1.1469    4.0744    1.1111 C.3       1 <0>        -0.1447
     17 C14        -0.6144    5.7127    0.5844 C.3       1 <0>        -0.1440
     18 C15        -0.0759    1.6239    2.3866 C.3       1 <0>        -0.1870
     19 O1         -2.0237    1.0313    1.1621 O.3       1 <0>        -0.3716
     20 C16        -2.8577    1.2565    2.3005 C.3       1 <0>         0.0209
     21 H4         -2.8667    1.5928   -3.2656 H         1 <0>         0.0532
     22 H5         -2.6049    2.6755   -4.6540 H         1 <0>         0.0490
     23 H6         -1.2424    1.7522   -3.9761 H         1 <0>         0.0530
     24 H7         -1.2113    5.0773   -4.0180 H         1 <0>         0.0658
     25 H8          0.0529    3.7453   -3.8348 H         1 <0>         0.0716
     26 H9         -0.9170    5.8442   -1.8244 H         1 <0>         0.0692
     27 H10         0.8158    5.5194   -2.2937 H         1 <0>         0.0661
     28 H11        -0.1888    1.3303   -2.2748 H         1 <0>         0.0568
     29 H12        -1.6820    0.8229   -1.4116 H         1 <0>         0.0775
     30 H13         0.1018    0.1909    0.0229 H         1 <0>         0.0587
     31 H14         0.9578    1.8080   -0.1675 H         1 <0>         0.0792
     32 H15        -2.7963    4.1788   -0.4356 H         1 <0>         0.0573
     33 H16        -2.9515    2.3924   -0.1860 H         1 <0>         0.0800
     34 H17         1.8542    4.7795    0.6746 H         1 <0>         0.0582
     35 H18         1.0106    4.3038    2.1680 H         1 <0>         0.0594
     36 H19         1.5330    3.0605    1.0063 H         1 <0>         0.0605
     37 H20        -1.5959    5.8523    0.1314 H         1 <0>         0.0533
     38 H21        -0.6658    5.9575    1.6453 H         1 <0>         0.0486
     39 H22         0.1078    6.3664    0.0953 H         1 <0>         0.0575
     40 H23         0.8657    2.1695    2.3248 H         1 <0>         0.0792
     41 H24        -0.6538    1.9915    3.2346 H         1 <0>         0.0610
     42 H25         0.1278    0.5614    2.5189 H         1 <0>         0.0640
     43 H26        -2.3368    0.9340    3.2020 H         1 <0>         0.0416
     44 H27        -3.0907    2.3186    2.3758 H         1 <0>         0.0420
     45 H28        -3.7817    0.6886    2.1919 H         1 <0>         0.0813
@<TRIPOS>BOND
     1    1    2 1
     2    1   21 1
     3    1   22 1
     4    1   23 1
     5    2    3 1
     6    2    8 1
     7    2    4 1
     8    4    5 1
     9    4   24 1
    10    4   25 1
    11    5    6 1
    12    5   26 1
    13    5   27 1
    14    6    7 1
    15    6   15 1
    16    6    8 1
    17    8   14 1
    18    8    9 1
    19    9   10 1
    20    9   28 1
    21    9   29 1
    22   10   11 1
    23   10   30 1
    24   10   31 1
    25   11   12 1
    26   11   18 1
    27   11   19 1
    28   12   13 1
    29   12   14 1
    30   12   15 1
    31   14   32 1
    32   14   33 1
    33   15   16 1
    34   15   17 1
    35   16   34 1
    36   16   35 1
    37   16   36 1
    38   17   37 1
    39   17   38 1
    40   17   39 1
    41   18   40 1
    42   18   41 1
    43   18   42 1
    44   19   20 1
    45   20   43 1
    46   20   44 1
    47   20   45 1
@<TRIPOS>MOLECULE
ZINC38634001
   40    40     0     0     0
SMALL
USER_CHARGES

@<TRIPOS>ATOM
      1 C1         -1.1691    1.7502    0.0379 C.3       1 <0>        -0.1535
      2 C2         -0.7363    0.2827    0.0321 C.3       1 <0>        -0.1181
      3 C3         -1.9755   -0.6144    0.0096 C.3       1 <0>        -0.0791
      4 C4         -1.5493   -2.0598    0.0039 C.2       1 <0>        -0.2226
      5 C5         -1.3928   -2.7139    1.1566 C.2       1 <0>        -0.0656
      6 C6         -1.5042   -1.9733    2.4644 C.3       1 <0>        -0.1025
      7 C7         -2.5862   -2.6242    3.3284 C.3       1 <0>        -0.0793
      8 H1         -2.3962   -3.6903    3.4523 H         1 <0>         0.0832
      9 C8         -3.9931   -2.3761    2.7364 C.3       1 <0>        -0.0936
     10 C9         -4.8850   -2.1708    3.9388 C.2       1 <0>        -0.1713
     11 C10        -4.1809   -1.9205    5.0090 C.2       1 <0>        -0.1255
     12 C11        -2.7013   -1.9179    4.6992 C.3       1 <0>        -0.0313
     13 C12        -1.9309   -2.6975    5.7668 C.3       1 <0>        -0.1393
     14 C13        -2.1793   -0.4828    4.6049 C.3       1 <0>        -0.1381
     15 C14        -4.7661   -1.6678    6.3745 C.3       1 <0>        -0.1067
     16 C15        -1.3071   -2.7458   -1.2649 C.2       1 <0>         0.3706
     17 O1         -1.4493   -2.1512   -2.3129 O.2       1 <0>        -0.4588
     18 H2         -0.2863    2.3893    0.0539 H         1 <0>         0.0550
     19 H3         -1.7535    1.9602   -0.8580 H         1 <0>         0.0552
     20 H4         -1.7759    1.9466    0.9218 H         1 <0>         0.0534
     21 H5         -0.1295    0.0863   -0.8519 H         1 <0>         0.0620
     22 H6         -0.1520    0.0727    0.9279 H         1 <0>         0.0607
     23 H7         -2.5823   -0.4180    0.8935 H         1 <0>         0.0749
     24 H8         -2.5599   -0.4044   -0.8862 H         1 <0>         0.0746
     25 H9         -1.1863   -3.7740    1.1523 H         1 <0>         0.1221
     26 H10        -0.5487   -2.0136    2.9873 H         1 <0>         0.0867
     27 H11        -1.7696   -0.9338    2.2718 H         1 <0>         0.0887
     28 H12        -3.9895   -1.4844    2.1096 H         1 <0>         0.0749
     29 H13        -4.3221   -3.2429    2.1632 H         1 <0>         0.0688
     30 H14        -5.9634   -2.2238    3.9156 H         1 <0>         0.1216
     31 H15        -0.8796   -2.7572    5.4853 H         1 <0>         0.0564
     32 H16        -2.0219   -2.1872    6.7257 H         1 <0>         0.0568
     33 H17        -2.3425   -3.7033    5.8500 H         1 <0>         0.0559
     34 H18        -2.7656    0.0696    3.8706 H         1 <0>         0.0562
     35 H19        -2.2672    0.0005    5.5779 H         1 <0>         0.0554
     36 H20        -1.1332   -0.4961    4.2990 H         1 <0>         0.0613
     37 H21        -5.8531   -1.7280    6.3208 H         1 <0>         0.0617
     38 H22        -4.3947   -2.4173    7.0733 H         1 <0>         0.0666
     39 H23        -4.4737   -0.6752    6.7171 H         1 <0>         0.0655
     40 H24        -1.0016   -3.7817   -1.2690 H         1 <0>         0.0972
@<TRIPOS>BOND
     1    1    2 1
     2    1   18 1
     3    1   19 1
     4    1   20 1
     5    2    3 1
     6    2   21 1
     7    2   22 1
     8    3    4 1
     9    3   23 1
    10    3   24 1
    11    4    5 2
    12    4   16 1
    13    5    6 1
    14    5   25 1
    15    6    7 1
    16    6   26 1
    17    6   27 1
    18    7    8 1
    19    7   12 1
    20    7    9 1
    21    9   10 1
    22    9   28 1
    23    9   29 1
    24   10   11 2
    25   10   30 1
    26   11   12 1
    27   11   15 1
    28   12   13 1
    29   12   14 1
    30   13   31 1
    31   13   32 1
    32   13   33 1
    33   14   34 1
    34   14   35 1
    35   14   36 1
    36   15   37 1
    37   15   38 1
    38   15   39 1
    39   16   17 2
    40   16   40 1
@<TRIPOS>MOLECULE
ZINC45028343
   18    19     0     0     0
SMALL
USER_CHARGES

@<TRIPOS>ATOM
      1 C1         -0.0169    1.3957    0.0097 C.ar      1 <0>        -0.0512
      2 C2          1.1920    2.0682    0.0018 C.ar      1 <0>        -0.1444
      3 C3          2.3711    1.3424   -0.0134 C.ar      1 <0>         0.1768
      4 N1          2.3581    0.0222   -0.0203 N.ar      1 <0>        -0.4691
      5 C4          1.2327   -0.6619   -0.0133 C.ar      1 <0>         0.1448
      6 C5          0.0021   -0.0041    0.0020 C.ar      1 <0>        -0.0546
      7 C6         -1.2606   -0.7726    0.0099 C.2       1 <0>        -0.1100
      8 C7         -1.4445   -2.1291    0.0100 C.2       1 <0>        -0.1310
      9 C8         -2.7308   -2.6235    0.0188 C.2       1 <0>        -0.1359
     10 C9         -3.7739   -1.7525    0.0271 C.2       1 <0>        -0.1181
     11 S1         -2.9421   -0.1729    0.0298 S.3       1 <0>         0.1197
     12 Cl1        -5.4769   -2.0893    0.0390 Cl        1 <0>         0.0245
     13 Cl2         3.8907    2.1817   -0.0240 Cl        1 <0>        -0.0204
     14 H1         -0.9515    1.9368    0.0260 H         1 <0>         0.1476
     15 H2          1.2158    3.1479    0.0070 H         1 <0>         0.1540
     16 H3          1.2625   -1.7415   -0.0193 H         1 <0>         0.1715
     17 H4         -0.5975   -2.7991    0.0030 H         1 <0>         0.1476
     18 H5         -2.9076   -3.6889    0.0188 H         1 <0>         0.1483
@<TRIPOS>BOND
     1    1    6 ar
     2    1    2 ar
     3    1   14 1
     4    2    3 ar
     5    2   15 1
     6    3    4 ar
     7    3   13 1
     8    4    5 ar
     9    5    6 ar
    10    5   16 1
    11    6    7 1
    12    7   11 1
    13    7    8 2
    14    8    9 1
    15    8   17 1
    16    9   10 2
    17    9   18 1
    18   10   11 1
    19   10   12 1
@<TRIPOS>MOLECULE
ZINC55343146
   30    30     0     0     0
SMALL
USER_CHARGES

@<TRIPOS>ATOM
      1 C1         -0.0187    1.5258    0.0104 C.3       1 <0>        -0.1479
      2 C2          0.0021   -0.0041    0.0020 C.3       1 <0>        -0.0964
      3 H1         -1.0205   -0.3814    0.0098 H         1 <0>         0.0797
      4 C3          0.7182   -0.4975   -1.2568 C.3       1 <0>        -0.1152
      5 C4          0.7390   -2.0273   -1.2652 C.3       1 <0>        -0.1217
      6 C5          1.4790   -2.5342   -0.0257 C.3       1 <0>        -0.0852
      7 H2          2.5015   -2.1569   -0.0334 H         1 <0>         0.0855
      8 C6          0.7628   -2.0407    1.2331 C.3       1 <0>         0.0036
      9 H3          1.2900   -2.4018    2.1162 H         1 <0>         0.1004
     10 C7          0.7421   -0.5109    1.2415 C.3       1 <0>        -0.1202
     11 Cl1        -0.9287   -2.6648    1.2459 Cl        1 <0>        -0.1814
     12 C8          1.4997   -4.0640   -0.0341 C.3       1 <0>        -0.0973
     13 C9          2.2158   -4.5574   -1.2929 C.3       1 <0>        -0.1489
     14 C10         2.2397   -4.5708    1.2054 C.3       1 <0>        -0.1517
     15 H4          1.0039    1.9031    0.0027 H         1 <0>         0.0536
     16 H5         -0.5459    1.8868   -0.8726 H         1 <0>         0.0560
     17 H6         -0.5289    1.8773    0.9072 H         1 <0>         0.0548
     18 H7          0.1910   -0.1364   -2.1398 H         1 <0>         0.0645
     19 H8          1.7408   -0.1202   -1.2645 H         1 <0>         0.0611
     20 H9         -0.2836   -2.4046   -1.2575 H         1 <0>         0.0722
     21 H10         1.2492   -2.3788   -2.1620 H         1 <0>         0.0694
     22 H11         1.7647   -0.1336    1.2338 H         1 <0>         0.0790
     23 H12         0.2319   -0.1594    2.1383 H         1 <0>         0.0738
     24 H13         0.4771   -4.4413   -0.0263 H         1 <0>         0.0797
     25 H14         3.2384   -4.1801   -1.3006 H         1 <0>         0.0534
     26 H15         2.2306   -5.6473   -1.2989 H         1 <0>         0.0550
     27 H16         1.6887   -4.1963   -2.1760 H         1 <0>         0.0583
     28 H17         3.2623   -4.1935    1.1977 H         1 <0>         0.0539
     29 H18         1.7295   -4.2193    2.1022 H         1 <0>         0.0552
     30 H19         2.2545   -5.6607    1.1994 H         1 <0>         0.0568
@<TRIPOS>BOND
     1    1    2 1
     2    1   15 1
     3    1   16 1
     4    1   17 1
     5    2    3 1
     6    2   10 1
     7    2    4 1
     8    4    5 1
     9    4   18 1
    10    4   19 1
    11    5    6 1
    12    5   20 1
    13    5   21 1
    14    6    7 1
    15    6    8 1
    16    6   12 1
    17    8    9 1
    18    8   10 1
    19    8   11 1
    20   10   22 1
    21   10   23 1
    22   12   13 1
    23   12   14 1
    24   12   24 1
    25   13   25 1
    26   13   26 1
    27   13   27 1
    28   14   28 1
    29   14   29 1
    30   14   30 1
@<TRIPOS>MOLECULE
ZINC20187793
   37    37     0     0     0
SMALL
USER_CHARGES
3-(cyclooctylamino)propan-1-ol
@<TRIPOS>ATOM
      1 C1         -0.7527    1.5927   -1.2316 C.3       1 <0>        -0.1275
      2 C2         -0.0127    1.0858    0.0080 C.3       1 <0>        -0.1429
      3 C3         -0.7289    1.5793    1.2669 C.3       1 <0>        -0.1236
      4 C4         -0.4127    3.0600    1.4859 C.3       1 <0>        -0.1493
      5 C5          1.0806    3.3026    1.2588 C.3       1 <0>         0.0262
      6 C6          1.2727    4.1693    0.0126 C.3       1 <0>        -0.1390
      7 C7          1.0566    3.3163   -1.2390 C.3       1 <0>        -0.1284
      8 C8         -0.4408    3.0759   -1.4404 C.3       1 <0>        -0.1347
      9 N1          1.6481    3.9907    2.4260 N.4       1 <0>        -0.5397
     10 C9          2.0274    3.0300    3.4705 C.3       1 <0>        -0.0021
     11 C10         2.6129    3.7823    4.6672 C.3       1 <0>        -0.1514
     12 C11         3.0080    2.7816    5.7551 C.3       1 <0>         0.0891
     13 O1          3.5549    3.4843    6.8727 O.3       1 <0>        -0.6039
     14 H1         -1.8358    1.4620   -1.0912 H         1 <0>         0.0707
     15 H2         -0.4257    1.0216   -2.1131 H         1 <0>         0.0694
     16 H3          0.0022   -0.0141    0.0019 H         1 <0>         0.0732
     17 H4          1.0193    1.4665    0.0002 H         1 <0>         0.0744
     18 H5         -1.8145    1.4502    1.1455 H         1 <0>         0.0843
     19 H6         -0.3854    0.9985    2.1357 H         1 <0>         0.0680
     20 H7         -0.9945    3.6678    0.7773 H         1 <0>         0.1095
     21 H8         -0.6774    3.3431    2.5153 H         1 <0>         0.0807
     22 H9          1.6148    2.3471    1.1510 H         1 <0>         0.1403
     23 H10         0.5455    4.9946    0.0243 H         1 <0>         0.0927
     24 H11         2.2932    4.5799    0.0052 H         1 <0>         0.0844
     25 H12         1.4647    3.8411   -2.1153 H         1 <0>         0.0822
     26 H13         1.5698    2.3509   -1.1179 H         1 <0>         0.0832
     27 H14        -0.7250    3.3701   -2.4615 H         1 <0>         0.0720
     28 H15        -1.0091    3.6759   -0.7144 H         1 <0>         0.0714
     29 H16         2.5436    4.5521    2.1211 H         1 <0>         0.4474
     30 H17         1.1385    2.4667    3.7908 H         1 <0>         0.1288
     31 H18         2.7793    2.3330    3.0720 H         1 <0>         0.1290
     32 H19         3.5017    4.3457    4.3469 H         1 <0>         0.0933
     33 H20         1.8610    4.4793    5.0657 H         1 <0>         0.0930
     34 H21         2.1191    2.2183    6.0754 H         1 <0>         0.0512
     35 H22         3.7599    2.0846    5.3566 H         1 <0>         0.0513
     36 H23         3.8974    2.9283    7.7579 H         1 <0>         0.4311
     37 H24         0.9029    4.6859    2.8400 H         1 <0>         0.4461
@<TRIPOS>BOND
     1    1    8 1
     2    1    2 1
     3    1   14 1
     4    1   15 1
     5    2    3 1
     6    2   16 1
     7    2   17 1
     8    3    4 1
     9    3   18 1
    10    3   19 1
    11    4    5 1
    12    4   20 1
    13    4   21 1
    14    5    6 1
    15    5    9 1
    16    5   22 1
    17    6    7 1
    18    6   23 1
    19    6   24 1
    20    7    8 1
    21    7   25 1
    22    7   26 1
    23    8   27 1
    24    8   28 1
    25    9   10 1
    26    9   29 1
    27    9   37 1
    28   10   11 1
    29   10   30 1
    30   10   31 1
    31   11   12 1
    32   11   32 1
    33   11   33 1
    34   12   13 1
    35   12   34 1
    36   12   35 1
    37   13   36 1
@<TRIPOS>MOLECULE
ZINC37165947
   37    37     0     0     0
SMALL
USER_CHARGES

@<TRIPOS>ATOM
      1 C1          0.4830   -0.3197    1.2985 C.3       1 <0>        -0.1570
      2 C2         -0.1972    0.0976   -0.0069 C.3       1 <0>        -0.1456
      3 C3          0.6449   -0.3737   -1.1941 C.3       1 <0>         0.0201
      4 C4          0.6915   -1.9029   -1.2113 C.3       1 <0>        -0.1498
      5 C5          1.6334   -2.3720   -2.3219 C.3       1 <0>        -0.1741
      6 N1          0.0444    0.1119   -2.4438 N.4       1 <0>        -0.5055
      7 C6          0.1275    1.5778   -2.4897 C.3       1 <0>         0.0249
      8 H1         -0.3179    1.9954   -1.5867 H         1 <0>         0.1434
      9 C7          1.5946    2.0030   -2.5783 C.3       1 <0>        -0.1424
     10 C8          1.6811    3.5298   -2.6261 C.3       1 <0>        -0.1146
     11 C9          0.9258    4.0453   -3.8527 C.3       1 <0>        -0.1651
     12 C10        -0.5413    3.6201   -3.7641 C.3       1 <0>         0.1143
     13 H2         -0.9867    4.0377   -2.8611 H         1 <0>         0.0658
     14 C11        -0.6278    2.0933   -3.7163 C.3       1 <0>        -0.1383
     15 O1         -1.2468    4.1016   -4.9097 O.3       1 <0>        -0.5628
     16 H3          0.4876   -1.4071    1.3743 H         1 <0>         0.0698
     17 H4          1.5085    0.0495    1.3080 H         1 <0>         0.0666
     18 H5         -0.0625    0.1011    2.1432 H         1 <0>         0.0776
     19 H6         -1.1874   -0.3548   -0.0614 H         1 <0>         0.0888
     20 H7         -0.2916    1.1831   -0.0365 H         1 <0>         0.0855
     21 H8          1.6571    0.0196   -1.1005 H         1 <0>         0.1416
     22 H9          1.0542   -2.2661   -0.2497 H         1 <0>         0.1152
     23 H10        -0.3091   -2.2949   -1.3937 H         1 <0>         0.0886
     24 H11         1.2706   -2.0088   -3.2835 H         1 <0>         0.0502
     25 H12         2.6340   -1.9800   -2.1395 H         1 <0>         0.0721
     26 H13         1.6666   -3.4614   -2.3341 H         1 <0>         0.0846
     27 H14         0.5425   -0.2780   -3.2300 H         1 <0>         0.4250
     28 H15         2.1327    1.6357   -1.7044 H         1 <0>         0.0902
     29 H16         2.0400    1.5854   -3.4813 H         1 <0>         0.0895
     30 H17         1.2358    3.9474   -1.7231 H         1 <0>         0.0768
     31 H18         2.7263    3.8327   -2.6892 H         1 <0>         0.0900
     32 H19         0.9874    5.1330   -3.8867 H         1 <0>         0.0830
     33 H20         1.3712    3.6277   -4.7557 H         1 <0>         0.0799
     34 H21        -0.1825    1.6757   -4.6193 H         1 <0>         0.0950
     35 H22        -1.6730    1.7905   -3.6531 H         1 <0>         0.0953
     36 H23        -1.2338    5.0639   -5.0039 H         1 <0>         0.3948
     37 H24        -0.9231   -0.1716   -2.4845 H         1 <0>         0.4265
@<TRIPOS>BOND
     1    1    2 1
     2    1   16 1
     3    1   17 1
     4    1   18 1
     5    2    3 1
     6    2   19 1
     7    2   20 1
     8    3    4 1
     9    3    6 1
    10    3   21 1
    11    4    5 1
    12    4   22 1
    13    4   23 1
    14    5   24 1
    15    5   25 1
    16    5   26 1
    17    6    7 1
    18    6   27 1
    19    6   37 1
    20    7    8 1
    21    7   14 1
    22    7    9 1
    23    9   10 1
    24    9   28 1
    25    9   29 1
    26   10   11 1
    27   10   30 1
    28   10   31 1
    29   11   12 1
    30   11   32 1
    31   11   33 1
    32   12   13 1
    33   12   14 1
    34   12   15 1
    35   14   34 1
    36   14   35 1
    37   15   36 1
@<TRIPOS>MOLECULE
ZINC41675079
   32    33     0     0     0
SMALL
USER_CHARGES

@<TRIPOS>ATOM
      1 C1         -0.0184    1.5028    0.0103 C.3       1 <0>        -0.1191
      2 C2          0.0021   -0.0041    0.0020 C.2       1 <0>        -0.0441
      3 C3          0.0059   -0.6990   -1.1929 C.2       1 <0>        -0.1746
      4 C4          0.0244   -2.0540   -1.1652 C.2       1 <0>        -0.1240
      5 S1          0.0371   -2.3874    0.5887 S.3       1 <0>         0.0929
      6 C5          0.0226   -0.6981    1.1661 C.2       1 <0>        -0.2645
      7 C6          0.0297   -0.1787    2.5808 C.3       1 <0>         0.1406
      8 H1          0.2818    0.8818    2.5771 H         1 <0>         0.1622
      9 C7         -1.3553   -0.3715    3.2018 C.3       1 <0>         0.0534
     10 O1         -1.7353   -1.7453    3.1012 O.3       1 <0>        -0.5688
     11 N1          1.0265   -0.9163    3.3683 N.4       1 <0>        -0.5055
     12 C8          1.1186   -0.3316    4.7127 C.3       1 <0>         0.0228
     13 C9          2.1568   -1.0998    5.5329 C.3       1 <0>        -0.2147
     14 C10         1.6638   -1.8505    6.7717 C.3       1 <0>        -0.1660
     15 C11         2.4863   -0.5701    6.9300 C.3       1 <0>        -0.1483
     16 H2          1.0042    1.8801    0.0026 H         1 <0>         0.0824
     17 H3         -0.5455    1.8639   -0.8728 H         1 <0>         0.0819
     18 H4         -0.5286    1.8543    0.9071 H         1 <0>         0.0677
     19 H5         -0.0059   -0.1702   -2.1345 H         1 <0>         0.1482
     20 H6          0.0298   -2.7512   -1.9900 H         1 <0>         0.1985
     21 H7         -1.3269   -0.0782    4.2512 H         1 <0>         0.0769
     22 H8         -2.0804    0.2459    2.6716 H         1 <0>         0.0959
     23 H9         -2.6050   -1.9413    3.4759 H         1 <0>         0.4079
     24 H10         0.7491   -1.8837    3.4406 H         1 <0>         0.4340
     25 H11         1.4183    0.7135    4.6346 H         1 <0>         0.1362
     26 H12         0.1478   -0.3954    5.2041 H         1 <0>         0.1324
     27 H13         2.9683   -1.5500    4.9611 H         1 <0>         0.1267
     28 H14         0.5999   -1.7970    7.0022 H         1 <0>         0.1061
     29 H15         2.1509   -2.7948    7.0149 H         1 <0>         0.1109
     30 H16         3.5144   -0.6720    7.2774 H         1 <0>         0.1131
     31 H17         1.9633    0.3258    7.2647 H         1 <0>         0.1081
     32 H18         1.9252   -0.8572    2.9135 H         1 <0>         0.4310
@<TRIPOS>BOND
     1    1    2 1
     2    1   16 1
     3    1   17 1
     4    1   18 1
     5    2    6 2
     6    2    3 1
     7    3    4 2
     8    3   19 1
     9    4    5 1
    10    4   20 1
    11    5    6 1
    12    6    7 1
    13    7    8 1
    14    7    9 1
    15    7   11 1
    16    9   10 1
    17    9   21 1
    18    9   22 1
    19   10   23 1
    20   11   12 1
    21   11   24 1
    22   11   32 1
    23   12   13 1
    24   12   25 1
    25   12   26 1
    26   13   15 1
    27   13   14 1
    28   13   27 1
    29   14   15 1
    30   14   28 1
    31   14   29 1
    32   15   30 1
    33   15   31 1
@<TRIPOS>MOLECULE
ZINC44398731
   38    39     0     0     0
SMALL
USER_CHARGES

@<TRIPOS>ATOM
      1 C1         -0.0184    1.5028    0.0103 C.3       1 <0>        -0.1189
      2 C2          0.0021   -0.0041    0.0020 C.ar      1 <0>        -0.1161
      3 C3          0.0057   -0.6877   -1.2000 C.ar      1 <0>        -0.0680
      4 C4          0.0240   -2.0688   -1.2103 C.ar      1 <0>        -0.1456
      5 C5          0.0391   -2.7702   -0.0132 C.ar      1 <0>         0.1399
      6 C6          0.0359   -2.0821    1.1912 C.ar      1 <0>        -0.2030
      7 C7          0.0229   -0.7005    1.1961 C.ar      1 <0>        -0.0262
      8 C8          0.0251    0.0478    2.5041 C.3       1 <0>        -0.1290
      9 O1          0.0567   -4.1291   -0.0207 O.3       1 <0>        -0.3182
     10 C9          0.0716   -4.7847    1.2490 C.3       1 <0>         0.0909
     11 C10         0.0901   -6.3002    1.0402 C.3       1 <0>        -0.1631
     12 C11        -1.1129   -7.0980    1.5473 C.3       1 <0>        -0.1758
     13 C12         0.2262   -7.1829    2.2825 C.3       1 <0>        -0.1654
     14 C13         0.0269   -2.8132   -2.5206 C.3       1 <0>        -0.0899
     15 C14        -1.4072   -3.1935   -2.8943 C.3       1 <0>        -0.0058
     16 N1         -1.4043   -3.9192   -4.1716 N.4       1 <0>        -0.6374
     17 H1          1.0042    1.8801    0.0026 H         1 <0>         0.0742
     18 H2         -0.5455    1.8639   -0.8728 H         1 <0>         0.0679
     19 H3         -0.5286    1.8543    0.9071 H         1 <0>         0.0725
     20 H4         -0.0061   -0.1413   -2.1315 H         1 <0>         0.1318
     21 H5          0.0477   -2.6258    2.1243 H         1 <0>         0.1329
     22 H6         -1.0019    0.2143    2.8292 H         1 <0>         0.0801
     23 H7          0.5541   -0.5371    3.2565 H         1 <0>         0.0720
     24 H8          0.5247    1.0077    2.3728 H         1 <0>         0.0778
     25 H9          0.9606   -4.4834    1.8030 H         1 <0>         0.0711
     26 H10        -0.8192   -4.5064    1.8121 H         1 <0>         0.0678
     27 H11         0.5717   -6.6428    0.1242 H         1 <0>         0.1147
     28 H12        -1.9176   -6.5431    2.0296 H         1 <0>         0.0976
     29 H13        -1.4232   -7.9655    0.9649 H         1 <0>         0.0998
     30 H14         0.7969   -8.1063    2.1837 H         1 <0>         0.1052
     31 H15         0.3025   -6.6839    3.2485 H         1 <0>         0.1002
     32 H16         0.4487   -2.1772   -3.2989 H         1 <0>         0.0932
     33 H17         0.6289   -3.7167   -2.4238 H         1 <0>         0.0972
     34 H18        -1.8290   -3.8295   -2.1161 H         1 <0>         0.1347
     35 H19        -2.0092   -2.2900   -2.9911 H         1 <0>         0.1332
     36 H20        -1.0139   -3.3304   -4.8920 H         1 <0>         0.4344
     37 H21        -0.8471   -4.7555   -4.0820 H         1 <0>         0.4355
     38 H22        -2.3501   -4.1700   -4.4181 H         1 <0>         0.4379
@<TRIPOS>BOND
     1    1    2 1
     2    1   17 1
     3    1   18 1
     4    1   19 1
     5    2    7 ar
     6    2    3 ar
     7    3    4 ar
     8    3   20 1
     9    4    5 ar
    10    4   14 1
    11    5    6 ar
    12    5    9 1
    13    6    7 ar
    14    6   21 1
    15    7    8 1
    16    8   22 1
    17    8   23 1
    18    8   24 1
    19    9   10 1
    20   10   11 1
    21   10   25 1
    22   10   26 1
    23   11   13 1
    24   11   12 1
    25   11   27 1
    26   12   13 1
    27   12   28 1
    28   12   29 1
    29   13   30 1
    30   13   31 1
    31   14   15 1
    32   14   32 1
    33   14   33 1
    34   15   16 1
    35   15   34 1
    36   15   35 1
    37   16   36 1
    38   16   37 1
    39   16   38 1
@<TRIPOS>MOLECULE
ZINC53760906
   31    31     0     0     0
SMALL
USER_CHARGES

@<TRIPOS>ATOM
      1 C1         -0.0187    1.5258    0.0104 C.3       1 <0>        -0.1880
      2 C2          0.0021   -0.0041    0.0020 C.3       1 <0>         0.0725
      3 C3          0.7421   -0.5109    1.2415 C.3       1 <0>        -0.1399
      4 C4          2.1775    0.0187    1.2307 C.3       1 <0>         0.0448
      5 O1          2.8686   -0.4547    2.3884 O.3       1 <0>        -0.3801
      6 C5          4.2255   -0.0151    2.4755 C.3       1 <0>         0.0267
      7 C6         -1.4333   -0.5336    0.0129 C.3       1 <0>        -0.0433
      8 C7         -2.1247   -0.1373   -1.2662 C.2       1 <0>        -0.2196
      9 C8         -2.1949   -0.8082   -2.4418 C.2       1 <0>        -0.1440
     10 C9         -2.8934   -0.2460   -3.4938 C.2       1 <0>        -0.1729
     11 C10        -3.4875    0.9597   -3.3186 C.2       1 <0>        -0.1414
     12 S1         -3.0703    1.3342   -1.6236 S.3       1 <0>         0.0869
     13 N1          0.6897   -0.4778   -1.2066 N.4       1 <0>        -0.6371
     14 H1          1.0039    1.9031    0.0027 H         1 <0>         0.0872
     15 H2         -0.5459    1.8868   -0.8726 H         1 <0>         0.0880
     16 H3         -0.5289    1.8773    0.9072 H         1 <0>         0.1120
     17 H4          0.2319   -0.1594    2.1383 H         1 <0>         0.1248
     18 H5          0.7568   -1.6008    1.2356 H         1 <0>         0.1024
     19 H6          2.6876   -0.3328    0.3339 H         1 <0>         0.0402
     20 H7          2.1627    1.1086    1.2367 H         1 <0>         0.0682
     21 H8          4.7782   -0.3673    1.6045 H         1 <0>         0.0471
     22 H9          4.2532    1.0741    2.5073 H         1 <0>         0.0499
     23 H10         4.6801   -0.4167    3.3811 H         1 <0>         0.0989
     24 H11        -1.4190   -1.6203    0.0965 H         1 <0>         0.1136
     25 H12        -1.9701   -0.1109    0.8621 H         1 <0>         0.1274
     26 H13        -1.7120   -1.7676   -2.5551 H         1 <0>         0.1357
     27 H14        -2.9645   -0.7595   -4.4412 H         1 <0>         0.1444
     28 H15        -4.0665    1.5411   -4.0209 H         1 <0>         0.1952
     29 H16         1.6363   -0.1286   -1.2138 H         1 <0>         0.4318
     30 H17         0.7033   -1.4867   -1.2121 H         1 <0>         0.4348
     31 H18         0.2017   -0.1436   -2.0240 H         1 <0>         0.4338
@<TRIPOS>BOND
     1    1    2 1
     2    1   14 1
     3    1   15 1
     4    1   16 1
     5    2    3 1
     6    2    7 1
     7    2   13 1
     8    3    4 1
     9    3   17 1
    10    3   18 1
    11    4    5 1
    12    4   19 1
    13    4   20 1
    14    5    6 1
    15    6   21 1
    16    6   22 1
    17    6   23 1
    18    7    8 1
    19    7   24 1
    20    7   25 1
    21    8   12 1
    22    8    9 2
    23    9   10 1
    24    9   26 1
    25   10   11 2
    26   10   27 1
    27   11   12 1
    28   11   28 1
    29   13   29 1
    30   13   30 1
    31   13   31 1
@<TRIPOS>MOLECULE
ZINC00116711
   17    17     0     0     0
SMALL
USER_CHARGES
3,5-difluoro-4-(trifluoromethyl)aniline
@<TRIPOS>ATOM
      1 C1         -0.0126    1.0758    0.0080 C.ar      1 <0>        -0.2487
      2 C2          1.1803    1.7871    0.0004 C.ar      1 <0>         0.3037
      3 C3          1.1585    3.1757    0.0081 C.ar      1 <0>        -0.2487
      4 C4         -0.0507    3.8474    0.0233 C.ar      1 <0>         0.2309
      5 C5         -1.2389    3.1363    0.0313 C.ar      1 <0>        -0.3272
      6 C6         -1.2196    1.7517    0.0174 C.ar      1 <0>         0.2309
      7 F1         -2.3803    1.0603    0.0186 F         1 <0>        -0.1109
      8 C7         -2.5550    3.8702    0.0483 C.3       1 <0>         0.5206
      9 F2         -2.9753    4.1045   -1.2653 F         1 <0>        -0.1733
     10 F3         -3.5120    3.0962    0.7132 F         1 <0>        -0.1701
     11 F4         -2.3993    5.0914    0.7129 F         1 <0>        -0.1702
     12 F5         -0.0725    5.1982    0.0308 F         1 <0>        -0.1108
     13 N1          2.4000    1.1068   -0.0145 N.pl3     1 <0>        -0.8523
     14 H1          0.0021   -0.0041    0.0020 H         1 <0>         0.1532
     15 H2          2.0850    3.7308    0.0019 H         1 <0>         0.1532
     16 H3          2.4144    0.1370   -0.0196 H         1 <0>         0.4098
     17 H4          3.2327    1.6043   -0.0198 H         1 <0>         0.4098
@<TRIPOS>BOND
     1    1    6 ar
     2    1    2 ar
     3    1   14 1
     4    2    3 ar
     5    2   13 1
     6    3    4 ar
     7    3   15 1
     8    4    5 ar
     9    4   12 1
    10    5    6 ar
    11    5    8 1
    12    6    7 1
    13    8    9 1
    14    8   10 1
    15    8   11 1
    16   13   16 1
    17   13   17 1
@<TRIPOS>MOLECULE
ZINC20257396
   29    30     0     0     0
SMALL
USER_CHARGES
4-thiomorpholinobenzenecarbothioamide
@<TRIPOS>ATOM
      1 C1         -1.4927    5.4141   -3.9531 C.ar      1 <0>        -0.0313
      2 C2         -1.2047    4.9248   -2.6995 C.ar      1 <0>        -0.1604
      3 C3         -1.0549    3.5549   -2.5028 C.ar      1 <0>         0.1323
      4 C4         -1.1904    2.6758   -3.5736 C.ar      1 <0>        -0.1109
      5 C5         -1.4836    3.1579   -4.8288 C.ar      1 <0>        -0.0732
      6 C6         -1.6348    4.5335   -5.0300 C.ar      1 <0>        -0.1192
      7 C7         -1.9436    5.0537   -6.3735 C.2       1 <0>         0.4040
      8 S1         -1.2963    6.5556   -6.8795 S.2       1 <0>        -0.5776
      9 N1         -2.7357    4.3471   -7.2041 N.pl3     1 <0>        -0.7829
     10 N2         -0.7633    3.0637   -1.2343 N.pl3     1 <0>        -0.5151
     11 C8         -1.4725    3.8226   -0.2017 C.3       1 <0>         0.0518
     12 C9         -1.5158    3.0142    1.1002 C.3       1 <0>        -0.0789
     13 S2          0.1935    2.7299    1.6559 S.3       1 <0>        -0.2651
     14 C10         0.9982    2.0773    0.1596 C.3       1 <0>        -0.0792
     15 C11         0.6832    3.0194   -1.0082 C.3       1 <0>         0.0596
     16 H1         -1.6091    6.4770   -4.1049 H         1 <0>         0.1448
     17 H2         -1.0951    5.6043   -1.8673 H         1 <0>         0.1333
     18 H3         -1.0691    1.6139   -3.4184 H         1 <0>         0.1376
     19 H4         -1.5931    2.4749   -5.6583 H         1 <0>         0.1303
     20 H5         -2.9662    4.7355   -8.2071 H         1 <0>         0.4508
     21 H6         -3.1516    3.3821   -6.8790 H         1 <0>         0.4240
     22 H7         -0.9500    4.7737   -0.0218 H         1 <0>         0.0605
     23 H8         -2.5000    4.0266   -0.5372 H         1 <0>         0.0925
     24 H9         -2.0711    3.5785    1.8639 H         1 <0>         0.1142
     25 H10        -2.0175    2.0523    0.9181 H         1 <0>         0.0943
     26 H11         2.0852    2.0269    0.3202 H         1 <0>         0.1147
     27 H12         0.6122    1.0698   -0.0546 H         1 <0>         0.0949
     28 H13         1.1852    2.6535   -1.9160 H         1 <0>         0.0925
     29 H14         1.0481    4.0292   -0.7692 H         1 <0>         0.0615
@<TRIPOS>BOND
     1    1    6 ar
     2    1    2 ar
     3    1   16 1
     4    2    3 ar
     5    2   17 1
     6    3    4 ar
     7    3   10 1
     8    4    5 ar
     9    4   18 1
    10    5    6 ar
    11    5   19 1
    12    6    7 1
    13    7    8 2
    14    7    9 1
    15    9   20 1
    16    9   21 1
    17   10   15 1
    18   10   11 1
    19   11   12 1
    20   11   22 1
    21   11   23 1
    22   12   13 1
    23   12   24 1
    24   12   25 1
    25   13   14 1
    26   14   15 1
    27   14   26 1
    28   14   27 1
    29   15   28 1
    30   15   29 1
@<TRIPOS>MOLECULE
ZINC37688425
   31    31     0     0     0
SMALL
USER_CHARGES

@<TRIPOS>ATOM
      1 C1         -0.0187    1.5258    0.0104 C.3       1 <0>        -0.1499
      2 C2          0.0021   -0.0041    0.0020 C.3       1 <0>        -0.1537
      3 C3          0.7182   -0.4975   -1.2568 C.3       1 <0>         0.0956
      4 H1          0.2444   -0.0644   -2.1377 H         1 <0>         0.1047
      5 C4          0.6303   -2.0233   -1.3286 C.3       1 <0>         0.0916
      6 N1          1.3160   -2.4957   -2.5339 N.pl3     1 <0>        -0.7425
      7 C5          1.3692   -3.8657   -2.8175 C.ar      1 <0>         0.2138
      8 C6          0.7669   -4.7762   -1.9592 C.ar      1 <0>        -0.1809
      9 C7          0.8188   -6.1273   -2.2389 C.ar      1 <0>        -0.0486
     10 C8          1.4735   -6.5759   -3.3790 C.ar      1 <0>        -0.1400
     11 C9          2.0759   -5.6648   -4.2375 C.ar      1 <0>        -0.0820
     12 C10         2.0192   -4.3134   -3.9601 C.ar      1 <0>        -0.1760
     13 S1          1.5404   -8.3000   -3.7359 S.3       1 <0>        -0.1328
     14 C11         2.4764   -8.3911   -5.2871 C.3       1 <0>        -0.1406
     15 O1          2.0903   -0.1010   -1.2105 O.3       1 <0>        -0.5567
     16 H2          1.0039    1.9031    0.0027 H         1 <0>         0.0617
     17 H3         -0.5459    1.8868   -0.8726 H         1 <0>         0.0549
     18 H4         -0.5289    1.8773    0.9072 H         1 <0>         0.0565
     19 H5          0.5293   -0.3651    0.8851 H         1 <0>         0.0690
     20 H6         -1.0205   -0.3814    0.0098 H         1 <0>         0.0748
     21 H7          1.1041   -2.4564   -0.4477 H         1 <0>         0.0627
     22 H8         -0.4163   -2.3257   -1.3639 H         1 <0>         0.0689
     23 H9          1.7332   -1.8594   -3.1355 H         1 <0>         0.4043
     24 H10         0.2582   -4.4275   -1.0726 H         1 <0>         0.1246
     25 H11         0.3506   -6.8354   -1.5711 H         1 <0>         0.1267
     26 H12         2.5850   -6.0133   -5.1240 H         1 <0>         0.1223
     27 H13         2.4837   -3.6048   -4.6298 H         1 <0>         0.1234
     28 H14         1.9518   -7.8315   -6.0615 H         1 <0>         0.0819
     29 H15         3.4681   -7.9637   -5.1387 H         1 <0>         0.0819
     30 H16         2.5719   -9.4329   -5.5932 H         1 <0>         0.1075
     31 H17         2.5754   -0.4509   -0.4506 H         1 <0>         0.3770
@<TRIPOS>BOND
     1    1    2 1
     2    1   16 1
     3    1   17 1
     4    1   18 1
     5    2    3 1
     6    2   19 1
     7    2   20 1
     8    3    4 1
     9    3    5 1
    10    3   15 1
    11    5    6 1
    12    5   21 1
    13    5   22 1
    14    6    7 1
    15    6   23 1
    16    7   12 ar
    17    7    8 ar
    18    8    9 ar
    19    8   24 1
    20    9   10 ar
    21    9   25 1
    22   10   11 ar
    23   10   13 1
    24   11   12 ar
    25   11   26 1
    26   12   27 1
    27   13   14 1
    28   14   28 1
    29   14   29 1
    30   14   30 1
    31   15   31 1
@<TRIPOS>MOLECULE
ZINC42467570
   33    35     0     0     0
SMALL
USER_CHARGES

@<TRIPOS>ATOM
      1 C1         -0.1637    1.2958   -0.3000 C.ar      1 <0>        -0.0292
      2 C2          0.9919    2.0530   -0.3241 C.ar      1 <0>        -0.2515
      3 C3          2.2326    1.4327   -0.2436 C.ar      1 <0>         0.2559
      4 C4          2.3104    0.0509   -0.1390 C.ar      1 <0>        -0.2728
      5 C5          1.1481   -0.7065   -0.1150 C.ar      1 <0>         0.2636
      6 C6         -0.0898   -0.0796   -0.1959 C.ar      1 <0>        -0.2455
      7 N1          1.2220   -2.0973   -0.0103 N.pl3     1 <0>        -0.5912
      8 C7          2.5268   -2.7563    0.0867 C.3       1 <0>         0.1750
      9 C8          2.9197   -2.8819    1.5361 C.2       1 <0>        -0.1412
     10 C9          3.7347   -1.9345    2.1266 C.2       1 <0>        -0.1437
     11 C10         4.0694   -2.0772    3.4324 C.2       1 <0>        -0.1727
     12 S1          3.2219   -3.5870    3.8679 S.3       1 <0>         0.0324
     13 C11         2.4745   -3.9227    2.2817 C.2       1 <0>        -0.1613
     14 C12        -0.0054   -2.8971    0.0027 C.3       1 <0>         0.0936
     15 C13         0.1384   -4.4086    0.1907 C.3       1 <0>        -0.1936
     16 C14        -0.2460   -3.8410   -1.1771 C.3       1 <0>        -0.1951
     17 N2          3.4002    2.1988   -0.2685 N.pl3     1 <0>        -0.8785
     18 H1         -1.1269    1.7808   -0.3581 H         1 <0>         0.1189
     19 H2          0.9306    3.1282   -0.4059 H         1 <0>         0.1140
     20 H3          3.2736   -0.4337   -0.0766 H         1 <0>         0.1181
     21 H4         -0.9949   -0.6685   -0.1770 H         1 <0>         0.1166
     22 H5          2.4669   -3.7484   -0.3609 H         1 <0>         0.0833
     23 H6          3.2733   -2.1637   -0.4421 H         1 <0>         0.0845
     24 H7          4.0998   -1.0933    1.5560 H         1 <0>         0.1318
     25 H8          4.6883   -1.4425    4.0491 H         1 <0>         0.1843
     26 H9          1.8346   -4.7428    1.9913 H         1 <0>         0.1848
     27 H10        -0.8761   -2.4148    0.4471 H         1 <0>         0.1250
     28 H11         1.1461   -4.8080    0.3048 H         1 <0>         0.1001
     29 H12        -0.6378   -4.9212    0.7591 H         1 <0>         0.1040
     30 H13        -1.2750   -3.9801   -1.5086 H         1 <0>         0.1008
     31 H14         0.5089   -3.8669   -1.9630 H         1 <0>         0.0957
     32 H15         3.3452    3.1644   -0.3420 H         1 <0>         0.3982
     33 H16         4.2661    1.7652   -0.2123 H         1 <0>         0.3956
@<TRIPOS>BOND
     1    1    6 ar
     2    1    2 ar
     3    1   18 1
     4    2    3 ar
     5    2   19 1
     6    3    4 ar
     7    3   17 1
     8    4    5 ar
     9    4   20 1
    10    5    6 ar
    11    5    7 1
    12    6   21 1
    13    7    8 1
    14    7   14 1
    15    8    9 1
    16    8   22 1
    17    8   23 1
    18    9   13 2
    19    9   10 1
    20   10   11 2
    21   10   24 1
    22   11   12 1
    23   11   25 1
    24   12   13 1
    25   13   26 1
    26   14   16 1
    27   14   15 1
    28   14   27 1
    29   15   16 1
    30   15   28 1
    31   15   29 1
    32   16   30 1
    33   16   31 1
    34   17   32 1
    35   17   33 1
@<TRIPOS>MOLECULE
ZINC53166011
   30    31     0     0     0
SMALL
USER_CHARGES

@<TRIPOS>ATOM
      1 C1         -0.0167    1.3822    0.0096 C.ar      1 <0>        -0.1764
      2 C2          1.1710    2.0911    0.0021 C.ar      1 <0>        -0.0753
      3 C3          2.3814    1.4204   -0.0130 C.ar      1 <0>         0.0096
      4 C4          2.4087    0.0344   -0.0207 C.ar      1 <0>         0.1045
      5 C5          1.2201   -0.6820   -0.0132 C.ar      1 <0>         0.0708
      6 C6          0.0021   -0.0041    0.0020 C.ar      1 <0>         0.2352
      7 N1         -1.2014   -0.7226    0.0096 N.pl3     1 <0>        -0.8612
      8 N2          1.2443   -2.0837   -0.0213 N.pl3     1 <0>        -0.6527
      9 C7          1.2500   -2.7879   -1.3141 C.3       1 <0>         0.1395
     10 C8          2.2232   -3.9879   -1.4333 C.3       1 <0>        -0.1344
     11 C9          3.5822   -3.7140   -0.8704 C.3       1 <0>        -0.0786
     12 S1          3.6202   -4.1341    0.9113 S.3       1 <0>        -0.2308
     13 C10         2.7243   -2.8609    1.7070 C.3       1 <0>        -0.1530
     14 C11         1.2683   -2.7814    1.2251 C.3       1 <0>         0.1488
     15 F1          3.5914   -0.6184   -0.0359 F         1 <0>        -0.1203
     16 F2          3.5386    2.1176   -0.0208 F         1 <0>        -0.1335
     17 H1         -0.9594    1.9090    0.0260 H         1 <0>         0.1400
     18 H2          1.1537    3.1710    0.0077 H         1 <0>         0.1468
     19 H3         -2.0484   -0.2500    0.0202 H         1 <0>         0.4027
     20 H4         -1.1872   -1.6925    0.0043 H         1 <0>         0.4039
     21 H5          0.2401   -3.1491   -1.5084 H         1 <0>         0.0521
     22 H6          1.5024   -2.0674   -2.0920 H         1 <0>         0.0633
     23 H7          1.7927   -4.8398   -0.9070 H         1 <0>         0.0776
     24 H8          2.3279   -4.2488   -2.4865 H         1 <0>         0.0829
     25 H9          4.3209   -4.3160   -1.3996 H         1 <0>         0.1025
     26 H10         3.8204   -2.6580   -0.9981 H         1 <0>         0.0876
     27 H11         2.7323   -3.0424    2.7818 H         1 <0>         0.1055
     28 H12         3.2138   -1.9075    1.5083 H         1 <0>         0.0895
     29 H13         0.6713   -2.2421    1.9605 H         1 <0>         0.0700
     30 H14         0.8694   -3.7870    1.0920 H         1 <0>         0.0837
@<TRIPOS>BOND
     1    1    6 ar
     2    1    2 ar
     3    1   17 1
     4    2    3 ar
     5    2   18 1
     6    3    4 ar
     7    3   16 1
     8    4    5 ar
     9    4   15 1
    10    5    6 ar
    11    5    8 1
    12    6    7 1
    13    7   19 1
    14    7   20 1
    15    8   14 1
    16    8    9 1
    17    9   10 1
    18    9   21 1
    19    9   22 1
    20   10   11 1
    21   10   23 1
    22   10   24 1
    23   11   12 1
    24   11   25 1
    25   11   26 1
    26   12   13 1
    27   13   14 1
    28   13   27 1
    29   13   28 1
    30   14   29 1
    31   14   30 1
@<TRIPOS>MOLECULE
ZINC03425125
   40    43     0     0     0
SMALL
USER_CHARGES

@<TRIPOS>ATOM
      1 C1          1.7858    1.3785    1.0017 C.ar      1 <0>        -0.0957
      2 C2          1.7961   -0.0034    0.9779 C.ar      1 <0>        -0.1071
      3 C3          1.1829   -0.6816   -0.0604 C.ar      1 <0>        -0.0298
      4 C4          0.5598    0.0240   -1.0744 C.ar      1 <0>        -0.1072
      5 C5          0.5502    1.4058   -1.0495 C.ar      1 <0>        -0.0866
      6 C6          1.1631    2.0830   -0.0117 C.ar      1 <0>        -0.0719
      7 C7          1.1518    3.5897    0.0152 C.3       1 <0>        -0.0427
      8 C8          1.0770    4.2302   -1.3809 C.3       1 <0>        -0.1186
      9 C9          2.0826    5.2751   -0.8692 C.3       1 <0>        -0.1448
     10 C10         2.5516    4.2141    0.1404 C.3       1 <0>        -0.1120
     11 C11         0.1512    4.1501    0.9928 C.2       1 <0>         0.4903
     12 O1          0.4926    4.9887    1.7929 O.2       1 <0>        -0.4737
     13 O2         -1.1197    3.7176    0.9747 O.3       1 <0>        -0.2826
     14 C12        -1.9960    4.3421    1.8055 C.ar      1 <0>         0.0940
     15 C13        -2.4174    3.7135    2.9685 C.ar      1 <0>        -0.0902
     16 C14        -3.3035    4.3493    3.8148 C.ar      1 <0>        -0.1045
     17 C15        -3.7813    5.6135    3.4968 C.ar      1 <0>         0.1350
     18 C16        -3.3635    6.2399    2.3304 C.ar      1 <0>        -0.0839
     19 C17        -2.4733    5.6055    1.4873 C.ar      1 <0>        -0.0993
     20 N1         -4.6858    6.2580    4.3543 N.pl3     1 <0>        -0.3310
     21 C18        -5.1878    5.7910    5.5177 C.2       1 <0>         0.2298
     22 N2         -5.9904    6.7085    5.9905 N.2       1 <0>        -0.3256
     23 N3         -6.0300    7.7238    5.2051 N.2       1 <0>        -0.0283
     24 N4         -5.2592    7.5313    4.1894 N.2       1 <0>        -0.0734
     25 Cl1         1.1959   -2.4173   -0.0914 Cl        1 <0>        -0.0649
     26 H1          2.2606    1.9080    1.8145 H         1 <0>         0.1321
     27 H2          2.2830   -0.5536    1.7694 H         1 <0>         0.1369
     28 H3          0.0813   -0.5049   -1.8853 H         1 <0>         0.1377
     29 H4          0.0635    1.9567   -1.8407 H         1 <0>         0.1369
     30 H5          1.4724    3.5956   -2.1742 H         1 <0>         0.1067
     31 H6          0.0980    4.6461   -1.6186 H         1 <0>         0.0800
     32 H7          1.6129    6.1422   -0.4048 H         1 <0>         0.0865
     33 H8          2.8426    5.5469   -1.6017 H         1 <0>         0.0831
     34 H9          2.7629    4.6171    1.1308 H         1 <0>         0.0884
     35 H10         3.3501    3.5745   -0.2356 H         1 <0>         0.1025
     36 H11        -2.0488    2.7284    3.2138 H         1 <0>         0.1494
     37 H12        -3.6283    3.8617    4.7221 H         1 <0>         0.1469
     38 H13        -3.7352    7.2231    2.0825 H         1 <0>         0.1518
     39 H14        -2.1479    6.0929    0.5800 H         1 <0>         0.1443
     40 H15        -4.9673    4.8368    5.9731 H         1 <0>         0.2414
@<TRIPOS>BOND
     1    1    6 ar
     2    1    2 ar
     3    1   26 1
     4    2    3 ar
     5    2   27 1
     6    3    4 ar
     7    3   25 1
     8    4    5 ar
     9    4   28 1
    10    5    6 ar
    11    5   29 1
    12    6    7 1
    13    7   10 1
    14    7    8 1
    15    7   11 1
    16    8    9 1
    17    8   30 1
    18    8   31 1
    19    9   10 1
    20    9   32 1
    21    9   33 1
    22   10   34 1
    23   10   35 1
    24   11   12 2
    25   11   13 1
    26   13   14 1
    27   14   19 ar
    28   14   15 ar
    29   15   16 ar
    30   15   36 1
    31   16   17 ar
    32   16   37 1
    33   17   18 ar
    34   17   20 1
    35   18   19 ar
    36   18   38 1
    37   19   39 1
    38   20   24 1
    39   20   21 1
    40   21   22 2
    41   21   40 1
    42   22   23 1
    43   23   24 2
@<TRIPOS>MOLECULE
ZINC12862653
   39    41     0     0     0
SMALL
USER_CHARGES
3-[(5-chloro-1-methyl-imidazol-2-yl)methylsulfanyl]-5-(2-methoxyphenyl)-4-methyl-1,2,4-triazole
@<TRIPOS>ATOM
      1 C1          2.6137   -8.9761    1.3399 C.3       1 <0>         0.0585
      2 N1          2.5847   -9.1439   -0.1152 N.pl3     1 <0>        -0.4431
      3 C2          3.0290  -10.2324   -0.8163 C.2       1 <0>         0.0230
      4 C3          2.8154   -9.9692   -2.1210 C.2       1 <0>         0.0125
      5 N2          2.2509   -8.7555   -2.2124 N.2       1 <0>        -0.4536
      6 C4          2.1147   -8.2527   -1.0162 C.2       1 <0>         0.2238
      7 C5          1.5251   -6.9043   -0.6922 C.3       1 <0>        -0.0194
      8 S1          2.8392   -5.6597   -0.6742 S.3       1 <0>         0.0294
      9 C6          1.8958   -4.2243   -0.2816 C.2       1 <0>         0.1492
     10 N3          0.5989   -4.1760   -0.0767 N.2       1 <0>        -0.2877
     11 N4          0.2383   -2.9713    0.1882 N.2       1 <0>        -0.2518
     12 C7          1.2828   -2.1761    0.1687 C.2       1 <0>         0.2405
     13 N5          2.3760   -2.9531   -0.1379 N.pl3     1 <0>        -0.4594
     14 C8          3.7655   -2.5105   -0.2780 C.3       1 <0>         0.0695
     15 C9          1.2832   -0.7203    0.4220 C.ar      1 <0>        -0.0616
     16 C10         2.2277   -0.1582    1.2818 C.ar      1 <0>        -0.0577
     17 C11         2.2227    1.2015    1.5146 C.ar      1 <0>        -0.1567
     18 C12         1.2843    2.0113    0.8986 C.ar      1 <0>        -0.0585
     19 C13         0.3438    1.4659    0.0450 C.ar      1 <0>        -0.2096
     20 C14         0.3355    0.1024   -0.1992 C.ar      1 <0>         0.1727
     21 O1         -0.5885   -0.4346   -1.0375 O.3       1 <0>        -0.2968
     22 C15        -1.5238    0.4659   -1.6345 C.3       1 <0>         0.0241
     23 Cl1         3.7327  -11.6740   -0.1529 Cl        1 <0>         0.0023
     24 H1          1.6873   -9.3586    1.7683 H         1 <0>         0.0881
     25 H2          3.4592   -9.5266    1.7523 H         1 <0>         0.0942
     26 H3          2.7162   -7.9182    1.5816 H         1 <0>         0.0975
     27 H4          3.0529  -10.6226   -2.9474 H         1 <0>         0.1870
     28 H5          1.0473   -6.9423    0.2867 H         1 <0>         0.1167
     29 H6          0.7851   -6.6403   -1.4477 H         1 <0>         0.1345
     30 H7          4.2408   -2.4898    0.7027 H         1 <0>         0.0874
     31 H8          4.3030   -3.2011   -0.9278 H         1 <0>         0.0961
     32 H9          3.7864   -1.5114   -0.7131 H         1 <0>         0.0966
     33 H10         2.9612   -0.7869    1.7645 H         1 <0>         0.1296
     34 H11         2.9540    1.6358    2.1802 H         1 <0>         0.1328
     35 H12         1.2871    3.0750    1.0857 H         1 <0>         0.1323
     36 H13        -0.3827    2.1043   -0.4357 H         1 <0>         0.1373
     37 H14        -2.0941    0.9682   -0.8532 H         1 <0>         0.0596
     38 H15        -0.9872    1.2074   -2.2264 H         1 <0>         0.0569
     39 H16        -2.2035   -0.0910   -2.2794 H         1 <0>         0.1039
@<TRIPOS>BOND
     1    1    2 1
     2    1   24 1
     3    1   25 1
     4    1   26 1
     5    2    6 1
     6    2    3 1
     7    3    4 2
     8    3   23 1
     9    4    5 1
    10    4   27 1
    11    5    6 2
    12    6    7 1
    13    7    8 1
    14    7   28 1
    15    7   29 1
    16    8    9 1
    17    9   13 1
    18    9   10 2
    19   10   11 1
    20   11   12 2
    21   12   13 1
    22   12   15 1
    23   13   14 1
    24   14   30 1
    25   14   31 1
    26   14   32 1
    27   15   20 ar
    28   15   16 ar
    29   16   17 ar
    30   16   33 1
    31   17   18 ar
    32   17   34 1
    33   18   19 ar
    34   18   35 1
    35   19   20 ar
    36   19   36 1
    37   20   21 1
    38   21   22 1
    39   22   37 1
    40   22   38 1
    41   22   39 1
@<TRIPOS>MOLECULE
ZINC34766523
   46    48     0     0     0
SMALL
USER_CHARGES

@<TRIPOS>ATOM
      1 C1         -0.0187    1.5258    0.0104 C.3       1 <0>        -0.1733
      2 C2          0.0021   -0.0041    0.0020 C.3       1 <0>         0.1048
      3 N1         -1.3723   -0.5112    0.0124 N.am      1 <0>        -0.4930
      4 C3         -2.0004   -0.7475    1.2087 C.2       1 <0>         0.0511
      5 C4         -3.3058   -1.2285    1.2523 C.2       1 <0>        -0.2563
      6 C5         -3.8634   -1.4366    2.5925 C.2       1 <0>        -0.0202
      7 C6         -3.0272   -1.1256    3.6014 C.2       1 <0>        -0.1967
      8 S1         -1.5399   -0.5851    2.8060 S.3       1 <0>         0.2471
      9 C7         -3.2983   -1.2046    5.0718 C.3       1 <0>        -0.0358
     10 C8         -3.9036   -2.5763    5.3983 C.3       1 <0>        -0.1151
     11 C9         -5.4208   -2.4831    5.2685 C.3       1 <0>        -0.1229
     12 C10        -5.7959   -1.4946    4.1661 C.3       1 <0>        -0.1265
     13 C11        -5.2691   -1.9746    2.8174 C.3       1 <0>        -0.0606
     14 C12        -3.9537   -1.4640   -0.0564 C.2       1 <0>         0.5822
     15 O1         -5.0944   -1.8854   -0.1125 O.2       1 <0>        -0.4951
     16 N2         -3.2667   -1.2063   -1.1837 N.am      1 <0>        -0.5421
     17 C13        -2.0092   -0.7357   -1.1523 C.2       1 <0>         0.7149
     18 O2         -1.4317   -0.5121   -2.1987 O.2       1 <0>        -0.5277
     19 C14        -3.9089   -1.4398   -2.4796 C.3       1 <0>         0.1196
     20 C15        -4.6221   -0.1874   -2.9197 C.2       1 <0>         0.4553
     21 O3         -4.5966    0.7991   -2.2225 O.2       1 <0>        -0.4968
     22 O4         -5.2857   -0.1677   -4.0864 O.3       1 <0>        -0.3465
     23 C16        -5.9388    1.0529   -4.4407 C.3       1 <0>         0.0610
     24 C17        -6.6363    0.8844   -5.7920 C.3       1 <0>        -0.1521
     25 H1          1.0039    1.9031    0.0027 H         1 <0>         0.0848
     26 H2         -0.5459    1.8868   -0.8726 H         1 <0>         0.0675
     27 H3         -0.5289    1.8773    0.9072 H         1 <0>         0.0628
     28 H4          0.5123   -0.3556   -0.8948 H         1 <0>         0.1106
     29 H5          0.5293   -0.3651    0.8851 H         1 <0>         0.0958
     30 H6         -2.3657   -1.0776    5.6216 H         1 <0>         0.0785
     31 H7         -3.9996   -0.4199    5.3557 H         1 <0>         0.0935
     32 H8         -3.5218   -3.3204    4.6992 H         1 <0>         0.0683
     33 H9         -3.6403   -2.8592    6.4174 H         1 <0>         0.0731
     34 H10        -5.8236   -3.4661    5.0245 H         1 <0>         0.0652
     35 H11        -5.8442   -2.1464    6.2149 H         1 <0>         0.0653
     36 H12        -6.8810   -1.4038    4.1175 H         1 <0>         0.0684
     37 H13        -5.3656   -0.5196    4.3948 H         1 <0>         0.0722
     38 H14        -5.9253   -1.6170    2.0239 H         1 <0>         0.0879
     39 H15        -5.2464   -3.0643    2.8041 H         1 <0>         0.0821
     40 H16        -3.1519   -1.7053   -3.2176 H         1 <0>         0.1457
     41 H17        -4.6278   -2.2540   -2.3874 H         1 <0>         0.1467
     42 H18        -6.6773    1.3041   -3.6795 H         1 <0>         0.0691
     43 H19        -5.2015    1.8527   -4.5097 H         1 <0>         0.0688
     44 H20        -5.8978    0.6332   -6.5533 H         1 <0>         0.0684
     45 H21        -7.3736    0.0846   -5.7231 H         1 <0>         0.0685
     46 H22        -7.1345    1.8155   -6.0623 H         1 <0>         0.0816
@<TRIPOS>BOND
     1    1    2 1
     2    1   25 1
     3    1   26 1
     4    1   27 1
     5    2    3 1
     6    2   28 1
     7    2   29 1
     8    3   17 am
     9    3    4 1
    10    4    8 1
    11    4    5 2
    12    5    6 1
    13    5   14 1
    14    6   13 1
    15    6    7 2
    16    7    8 1
    17    7    9 1
    18    9   10 1
    19    9   30 1
    20    9   31 1
    21   10   11 1
    22   10   32 1
    23   10   33 1
    24   11   12 1
    25   11   34 1
    26   11   35 1
    27   12   13 1
    28   12   36 1
    29   12   37 1
    30   13   38 1
    31   13   39 1
    32   14   15 2
    33   14   16 am
    34   16   17 am
    35   16   19 1
    36   17   18 2
    37   19   20 1
    38   19   40 1
    39   19   41 1
    40   20   21 2
    41   20   22 1
    42   22   23 1
    43   23   24 1
    44   23   42 1
    45   23   43 1
    46   24   44 1
    47   24   45 1
    48   24   46 1
@<TRIPOS>MOLECULE
ZINC49458284
   42    45     0     0     0
SMALL
USER_CHARGES

@<TRIPOS>ATOM
      1 C1          0.0824    1.0240   -1.8629 C.ar      1 <0>        -0.1098
      2 C2          0.9938    1.9187   -1.3324 C.ar      1 <0>        -0.0720
      3 C3          1.9736    1.4782   -0.4622 C.ar      1 <0>        -0.1426
      4 C4          2.0447    0.1399   -0.1195 C.ar      1 <0>         0.1256
      5 C5          1.1293   -0.7612   -0.6518 C.ar      1 <0>         0.0854
      6 C6          0.1475   -0.3138   -1.5252 C.ar      1 <0>        -0.0750
      7 N1          1.1980   -2.1185   -0.3077 N.pl3     1 <0>        -0.3072
      8 C7          0.1578   -2.8878    0.0747 C.2       1 <0>         0.3785
      9 C8          0.6617   -4.1650    0.3214 C.2       1 <0>        -0.3046
     10 C9          2.0544   -4.1149    0.0660 C.2       1 <0>         0.1111
     11 N2          2.3555   -2.9039   -0.3090 N.2       1 <0>        -0.2530
     12 C10        -0.1010   -5.3316    0.7603 C.2       1 <0>         0.4466
     13 O1         -1.2972   -5.2402    0.9452 O.2       1 <0>        -0.4204
     14 C11         0.5974   -6.6482    0.9834 C.3       1 <0>         0.0287
     15 H1          1.4548   -6.7226    0.3144 H         1 <0>         0.1574
     16 C12         1.0560   -6.7300    2.3797 C.1       1 <0>         0.2102
     17 N3          1.4099   -6.7931    3.4573 N.1       1 <0>        -0.3852
     18 C13        -0.3589   -7.7783    0.7017 C.ar      1 <0>         0.1301
     19 C14        -1.2196   -8.2083    1.6942 C.ar      1 <0>        -0.1403
     20 C15        -2.0954   -9.2485    1.4248 C.ar      1 <0>        -0.0694
     21 C16        -2.0727   -9.8200    0.1615 C.ar      1 <0>        -0.1604
     22 C17        -1.1842   -9.3371   -0.7802 C.ar      1 <0>         0.1050
     23 N4         -0.3688   -8.3419   -0.4903 N.ar      1 <0>        -0.4691
     24 N5         -1.1644   -2.4846    0.1992 N.pl3     1 <0>        -0.3998
     25 C18        -2.2377   -3.0674   -0.4162 C.2       1 <0>         0.0332
     26 C19        -3.3478   -2.3966   -0.0501 C.2       1 <0>        -0.1841
     27 C20        -2.9502   -1.3622    0.8223 C.2       1 <0>        -0.1688
     28 C21        -1.6122   -1.4419    0.9625 C.2       1 <0>        -0.0143
     29 F1          3.0023   -0.2910    0.7305 F         1 <0>        -0.1194
     30 H2         -0.6843    1.3727   -2.5389 H         1 <0>         0.1455
     31 H3          0.9403    2.9640   -1.5989 H         1 <0>         0.1461
     32 H4          2.6841    2.1793   -0.0498 H         1 <0>         0.1505
     33 H5         -0.5652   -1.0111   -1.9401 H         1 <0>         0.1378
     34 H6          2.7460   -4.9389    0.1613 H         1 <0>         0.2101
     35 H7         -1.2096   -7.7399    2.6673 H         1 <0>         0.1316
     36 H8         -2.7789   -9.6056    2.1809 H         1 <0>         0.1401
     37 H9         -2.7408  -10.6326   -0.0832 H         1 <0>         0.1410
     38 H10        -1.1603   -9.7768   -1.7663 H         1 <0>         0.1639
     39 H11        -2.2018   -3.9177   -1.0811 H         1 <0>         0.1651
     40 H12        -4.3576   -2.6119   -0.3670 H         1 <0>         0.1470
     41 H13        -3.6000   -0.6408    1.2954 H         1 <0>         0.1459
     42 H14        -0.9992   -0.7926    1.5700 H         1 <0>         0.1593
@<TRIPOS>BOND
     1    1    6 ar
     2    1    2 ar
     3    1   30 1
     4    2    3 ar
     5    2   31 1
     6    3    4 ar
     7    3   32 1
     8    4    5 ar
     9    4   29 1
    10    5    6 ar
    11    5    7 1
    12    6   33 1
    13    7   11 1
    14    7    8 1
    15    8    9 2
    16    8   24 1
    17    9   10 1
    18    9   12 1
    19   10   11 2
    20   10   34 1
    21   12   13 2
    22   12   14 1
    23   14   15 1
    24   14   16 1
    25   14   18 1
    26   16   17 3
    27   18   23 ar
    28   18   19 ar
    29   19   20 ar
    30   19   35 1
    31   20   21 ar
    32   20   36 1
    33   21   22 ar
    34   21   37 1
    35   22   23 ar
    36   22   38 1
    37   24   28 1
    38   24   25 1
    39   25   26 2
    40   25   39 1
    41   26   27 1
    42   26   40 1
    43   27   28 2
    44   27   41 1
    45   28   42 1
@<TRIPOS>MOLECULE
ZINC62555649
   49    51     0     0     0
SMALL
USER_CHARGES

@<TRIPOS>ATOM
      1 C1         -0.0184    1.5028    0.0103 C.3       1 <0>        -0.1062
      2 C2          0.0021   -0.0041    0.0020 C.ar      1 <0>        -0.1166
      3 C3          0.0057   -0.6889   -1.1980 C.ar      1 <0>        -0.0840
      4 C4          0.0240   -2.0712   -1.2062 C.ar      1 <0>        -0.1536
      5 C5          0.0391   -2.7720   -0.0142 C.ar      1 <0>        -0.0865
      6 C6          0.0359   -2.0920    1.1881 C.ar      1 <0>        -0.2060
      7 C7          0.0230   -0.7046    1.1991 C.ar      1 <0>         0.1282
      8 O1          0.0255   -0.0332    2.3806 O.3       1 <0>        -0.3070
      9 C8          0.0475   -0.8196    3.5736 C.3       1 <0>         0.0640
     10 C9          0.0471    0.1040    4.7934 C.3       1 <0>        -0.0977
     11 H1          0.8789    0.8046    4.7195 H         1 <0>         0.0922
     12 C10        -1.2710    0.8799    4.8461 C.3       1 <0>        -0.1126
     13 C11        -1.2591    1.8281    6.0474 C.3       1 <0>        -0.1320
     14 C12        -1.1270    1.0110    7.3365 C.3       1 <0>         0.1135
     15 N1          0.0613    0.1532    7.2330 N.pl3     1 <0>        -0.9940
     16 C13         0.1947   -0.7325    6.0682 C.3       1 <0>         0.1218
     17 S1          1.2290    0.1841    8.4068 S.o2      1 <0>         2.7197
     18 O2          2.4301   -0.2683    7.7969 O.2       1 <0>        -0.9488
     19 O3          1.1289    1.4492    9.0461 O.2       1 <0>        -0.9437
     20 C14         0.7893   -1.0248    9.6109 C.2       1 <0>        -0.8490
     21 C15        -0.0165   -0.8074   10.7429 C.2       1 <0>         0.1815
     22 N2         -0.1158   -1.9335   11.3908 N.2       1 <0>        -0.3086
     23 O4          0.6297   -2.9094   10.6854 O.3       1 <0>        -0.0740
     24 C16         1.1618   -2.3192    9.6042 C.2       1 <0>         0.2187
     25 C17         2.0273   -2.9865    8.5666 C.3       1 <0>        -0.1181
     26 C18        -0.6536    0.5000   11.1378 C.3       1 <0>        -0.1203
     27 H2          1.0042    1.8801    0.0026 H         1 <0>         0.0682
     28 H3         -0.5455    1.8639   -0.8728 H         1 <0>         0.0647
     29 H4         -0.5286    1.8543    0.9071 H         1 <0>         0.0697
     30 H5         -0.0060   -0.1439   -2.1303 H         1 <0>         0.1287
     31 H6          0.0261   -2.6047   -2.1453 H         1 <0>         0.1237
     32 H7          0.0529   -3.8519   -0.0233 H         1 <0>         0.1240
     33 H8          0.0477   -2.6398    2.1188 H         1 <0>         0.1268
     34 H9         -0.8338   -1.4603    3.6027 H         1 <0>         0.0657
     35 H10         0.9459   -1.4367    3.5855 H         1 <0>         0.0667
     36 H11        -1.3897    1.4570    3.9291 H         1 <0>         0.0771
     37 H12        -2.1008    0.1799    4.9443 H         1 <0>         0.0656
     38 H13        -0.4150    2.5124    5.9623 H         1 <0>         0.0724
     39 H14        -2.1885    2.3971    6.0709 H         1 <0>         0.0813
     40 H15        -1.0185    1.6846    8.1865 H         1 <0>         0.0971
     41 H16        -2.0142    0.3919    7.4691 H         1 <0>         0.0725
     42 H17        -0.5844   -1.4942    6.0977 H         1 <0>         0.0761
     43 H18         1.1751   -1.2089    6.0811 H         1 <0>         0.0969
     44 H19         3.0736   -2.9091    8.8619 H         1 <0>         0.1210
     45 H20         1.7500   -4.0373    8.4833 H         1 <0>         0.1033
     46 H21         1.8843   -2.4956    7.6039 H         1 <0>         0.1079
     47 H22        -1.6423    0.5738   10.6849 H         1 <0>         0.0975
     48 H23        -0.7467    0.5456   12.2229 H         1 <0>         0.0930
     49 H24        -0.0326    1.3260   10.7913 H         1 <0>         0.1191
@<TRIPOS>BOND
     1    1    2 1
     2    1   27 1
     3    1   28 1
     4    1   29 1
     5    2    7 ar
     6    2    3 ar
     7    3    4 ar
     8    3   30 1
     9    4    5 ar
    10    4   31 1
    11    5    6 ar
    12    5   32 1
    13    6    7 ar
    14    6   33 1
    15    7    8 1
    16    8    9 1
    17    9   10 1
    18    9   34 1
    19    9   35 1
    20   10   11 1
    21   10   16 1
    22   10   12 1
    23   12   13 1
    24   12   36 1
    25   12   37 1
    26   13   14 1
    27   13   38 1
    28   13   39 1
    29   14   15 1
    30   14   40 1
    31   14   41 1
    32   15   16 1
    33   15   17 1
    34   16   42 1
    35   16   43 1
    36   17   18 2
    37   17   19 2
    38   17   20 1
    39   20   24 2
    40   20   21 1
    41   21   22 2
    42   21   26 1
    43   22   23 1
    44   23   24 1
    45   24   25 1
    46   25   44 1
    47   25   45 1
    48   25   46 1
    49   26   47 1
    50   26   48 1
    51   26   49 1
@<TRIPOS>MOLECULE
ZINC01590473
   33    34     0     0     0
SMALL
USER_CHARGES
3-methyl-1-[4-(2-methyl-1,3-dithiolan-2-yl)phenyl]-urea
@<TRIPOS>ATOM
      1 C1         -5.5621    3.5113    1.8488 C.3       1 <0>        -0.1193
      2 C2         -5.2025    3.2216    0.3902 C.3       1 <0>         0.0844
      3 S1         -6.4536    2.1206   -0.3864 S.3       1 <0>        -0.2628
      4 C3         -7.5587    3.3161   -1.2426 C.3       1 <0>        -0.0778
      5 C4         -6.6100    4.3624   -1.8783 C.3       1 <0>        -0.0803
      6 S2         -5.3309    4.7418   -0.6285 S.3       1 <0>        -0.2594
      7 C5         -3.8235    2.6224    0.2887 C.ar      1 <0>        -0.0850
      8 C6         -3.6617    1.2503    0.3446 C.ar      1 <0>        -0.0722
      9 C7         -2.3992    0.6980    0.2514 C.ar      1 <0>        -0.1460
     10 C8         -1.2916    1.5223    0.1021 C.ar      1 <0>         0.1750
     11 C9         -1.4569    2.9002    0.0526 C.ar      1 <0>        -0.1176
     12 C10        -2.7226    3.4460    0.1405 C.ar      1 <0>        -0.0674
     13 N1         -0.0111    0.9658    0.0074 N.am      1 <0>        -0.6868
     14 C11         0.9268    1.5595   -0.7572 C.2       1 <0>         0.7006
     15 O1          0.6354    2.5244   -1.4371 O.2       1 <0>        -0.5674
     16 N2          2.1876    1.0835   -0.7680 N.am      1 <0>        -0.7453
     17 C12         3.2071    1.7287   -1.5990 C.3       1 <0>         0.1042
     18 H1         -4.8418    4.2138    2.2680 H         1 <0>         0.0769
     19 H2         -6.5617    3.9433    1.8978 H         1 <0>         0.0735
     20 H3         -5.5391    2.5831    2.4199 H         1 <0>         0.0797
     21 H4         -8.2232    3.7951   -0.5236 H         1 <0>         0.1019
     22 H5         -8.1386    2.8118   -2.0156 H         1 <0>         0.1268
     23 H6         -7.1658    5.2658   -2.1292 H         1 <0>         0.1225
     24 H7         -6.1455    3.9492   -2.7737 H         1 <0>         0.1029
     25 H8         -4.5234    0.6097    0.4608 H         1 <0>         0.1293
     26 H9         -2.2735   -0.3738    0.2944 H         1 <0>         0.1290
     27 H10        -0.5971    3.5441   -0.0587 H         1 <0>         0.1393
     28 H11        -2.8523    4.5173    0.0976 H         1 <0>         0.1320
     29 H12         0.2003    0.1507    0.4888 H         1 <0>         0.4078
     30 H13         2.4201    0.3136   -0.2256 H         1 <0>         0.3998
     31 H14         2.9018    1.6894   -2.6447 H         1 <0>         0.0612
     32 H15         3.3208    2.7686   -1.2926 H         1 <0>         0.0615
     33 H16         4.1572    1.2084   -1.4781 H         1 <0>         0.0790
@<TRIPOS>BOND
     1    1    2 1
     2    1   18 1
     3    1   19 1
     4    1   20 1
     5    2    6 1
     6    2    3 1
     7    2    7 1
     8    3    4 1
     9    4    5 1
    10    4   21 1
    11    4   22 1
    12    5    6 1
    13    5   23 1
    14    5   24 1
    15    7   12 ar
    16    7    8 ar
    17    8    9 ar
    18    8   25 1
    19    9   10 ar
    20    9   26 1
    21   10   11 ar
    22   10   13 1
    23   11   12 ar
    24   11   27 1
    25   12   28 1
    26   13   14 am
    27   13   29 1
    28   14   15 2
    29   14   16 am
    30   16   17 1
    31   16   30 1
    32   17   31 1
    33   17   32 1
    34   17   33 1
@<TRIPOS>MOLECULE
ZINC37132320
   31    33     0     0     0
SMALL
USER_CHARGES

@<TRIPOS>ATOM
      1 C1         -0.0168    1.3874    0.0097 C.ar      1 <0>        -0.0612
      2 C2          1.1401    2.1059    0.0025 C.ar      1 <0>        -0.1609
      3 C3          2.3777    1.4425   -0.0129 C.ar      1 <0>        -0.0330
      4 C4          2.4106    0.0269   -0.0209 C.ar      1 <0>        -0.0833
      5 C5          3.6491   -0.6347   -0.0372 C.ar      1 <0>        -0.1037
      6 C6          4.8026    0.0891   -0.0452 C.ar      1 <0>        -0.1142
      7 C7          4.7763    1.4812   -0.0370 C.ar      1 <0>        -0.1344
      8 C8          3.5913    2.1607   -0.0212 C.ar      1 <0>         0.1085
      9 O1          3.5820    3.5190   -0.0133 O.3       1 <0>        -0.4920
     10 C9          1.1965   -0.6924   -0.0127 C.ar      1 <0>         0.2281
     11 C10         0.0021   -0.0041    0.0020 C.ar      1 <0>        -0.2138
     12 N1          1.2048   -2.0863   -0.0204 N.pl3     1 <0>        -0.7387
     13 C11        -0.0594   -2.8264   -0.0118 C.3       1 <0>         0.2090
     14 C12         0.2248   -4.3064   -0.0227 C.2       1 <0>        -0.0429
     15 C13         0.3788   -5.0858    1.0627 C.2       1 <0>        -0.1802
     16 C14         0.6287   -6.3961    0.5940 C.2       1 <0>        -0.2184
     17 C15         0.6124   -6.3389   -0.7498 C.2       1 <0>        -0.0258
     18 O2          0.3616   -5.0718   -1.1177 O.3       1 <0>        -0.1712
     19 H1         -0.9641    1.9058    0.0261 H         1 <0>         0.1233
     20 H2          1.1058    3.1854    0.0083 H         1 <0>         0.1269
     21 H3          3.6866   -1.7140   -0.0431 H         1 <0>         0.1205
     22 H4          5.7525   -0.4247   -0.0578 H         1 <0>         0.1268
     23 H5          5.7057    2.0314   -0.0429 H         1 <0>         0.1293
     24 H6          3.5883    3.9072    0.8723 H         1 <0>         0.3903
     25 H7         -0.9293   -0.5508    0.0084 H         1 <0>         0.1228
     26 H8          2.0477   -2.5662   -0.0314 H         1 <0>         0.4026
     27 H9         -0.6236   -2.5714    0.8853 H         1 <0>         0.0945
     28 H10        -0.6414   -2.5617   -0.8946 H         1 <0>         0.0809
     29 H11         0.3229   -4.7710    2.0943 H         1 <0>         0.1513
     30 H12         0.8000   -7.2743    1.1988 H         1 <0>         0.1521
     31 H13         0.7703   -7.1715   -1.4194 H         1 <0>         0.2064
@<TRIPOS>BOND
     1    1   11 ar
     2    1    2 ar
     3    1   19 1
     4    2    3 ar
     5    2   20 1
     6    3    8 ar
     7    3    4 ar
     8    4    5 ar
     9    4   10 ar
    10    5    6 ar
    11    5   21 1
    12    6    7 ar
    13    6   22 1
    14    7    8 ar
    15    7   23 1
    16    8    9 1
    17    9   24 1
    18   10   11 ar
    19   10   12 1
    20   11   25 1
    21   12   13 1
    22   12   26 1
    23   13   14 1
    24   13   27 1
    25   13   28 1
    26   14   18 1
    27   14   15 2
    28   15   16 1
    29   15   29 1
    30   16   17 2
    31   16   30 1
    32   17   18 1
    33   17   31 1
@<TRIPOS>MOLECULE
ZINC39509749
   42    44     0     0     0
SMALL
USER_CHARGES

@<TRIPOS>ATOM
      1 C1         -0.0167    1.3781    0.0096 C.ar      1 <0>        -0.1267
      2 C2          1.1709    2.0855    0.0021 C.ar      1 <0>        -0.1188
      3 C3          2.3773    1.4107   -0.0130 C.ar      1 <0>        -0.1192
      4 C4          2.3960    0.0285   -0.0201 C.ar      1 <0>        -0.0765
      5 C5          1.2084   -0.6789   -0.0117 C.ar      1 <0>        -0.1152
      6 C6          0.0021   -0.0041    0.0020 C.ar      1 <0>        -0.1190
      7 C7          3.7112   -0.7071   -0.0376 C.3       1 <0>        -0.0746
      8 C8          4.1714   -0.9633    1.3989 C.3       1 <0>        -0.0777
      9 H1          4.2024   -0.0298    1.9608 H         1 <0>         0.0785
     10 C9          3.2357   -1.9836    2.0941 C.3       1 <0>        -0.1112
     11 C10         4.1360   -2.5679    3.2117 C.3       1 <0>        -0.1050
     12 C11         5.5283   -2.6658    2.5604 C.3       1 <0>         0.1160
     13 C12         5.5555   -1.6461    1.4091 C.3       1 <0>        -0.0998
     14 C13         6.6030   -2.3169    3.5880 C.3       1 <0>         0.0879
     15 H2          6.5379   -3.0055    4.4304 H         1 <0>         0.0602
     16 C14         7.9846   -2.4347    2.9373 C.3       1 <0>        -0.1574
     17 C15         8.1581   -3.8506    2.3807 C.3       1 <0>        -0.1482
     18 C16         7.0419   -4.1386    1.3741 C.3       1 <0>         0.0052
     19 N1          5.7381   -4.0192    2.0402 N.3       1 <0>        -0.3225
     20 O1          5.5983   -5.0164    3.1015 O.3       1 <0>        -0.4293
     21 O2          6.4052   -0.9790    4.0493 O.3       1 <0>        -0.5576
     22 H3         -0.9591    1.9053    0.0259 H         1 <0>         0.1195
     23 H4          1.1563    3.1654    0.0076 H         1 <0>         0.1200
     24 H5          3.3051    1.9634   -0.0196 H         1 <0>         0.1195
     25 H6          1.2231   -1.7588   -0.0176 H         1 <0>         0.1207
     26 H7         -0.9258   -0.5567    0.0082 H         1 <0>         0.1203
     27 H8          3.5884   -1.6586   -0.5549 H         1 <0>         0.0737
     28 H9          4.4573   -0.1052   -0.5563 H         1 <0>         0.0706
     29 H10         2.3668   -1.4825    2.5207 H         1 <0>         0.0648
     30 H11         2.9295   -2.7639    1.3974 H         1 <0>         0.0695
     31 H12         4.1625   -1.8970    4.0703 H         1 <0>         0.0748
     32 H13         3.7832   -3.5556    3.5086 H         1 <0>         0.0782
     33 H14         5.7269   -2.1573    0.4618 H         1 <0>         0.0729
     34 H15         6.3363   -0.9054    1.5812 H         1 <0>         0.0779
     35 H16         8.0681   -1.7116    2.1260 H         1 <0>         0.0749
     36 H17         8.7560   -2.2389    3.6820 H         1 <0>         0.0677
     37 H18         9.1252   -3.9304    1.8843 H         1 <0>         0.0733
     38 H19         8.1069   -4.5712    3.1970 H         1 <0>         0.0703
     39 H20         7.0980   -3.4222    0.5546 H         1 <0>         0.0961
     40 H21         7.1582   -5.1489    0.9819 H         1 <0>         0.0872
     41 H22         5.7286   -5.9275    2.8049 H         1 <0>         0.3816
     42 H23         7.0535   -0.6894    4.7058 H         1 <0>         0.3773
@<TRIPOS>BOND
     1    1    6 ar
     2    1    2 ar
     3    1   22 1
     4    2    3 ar
     5    2   23 1
     6    3    4 ar
     7    3   24 1
     8    4    5 ar
     9    4    7 1
    10    5    6 ar
    11    5   25 1
    12    6   26 1
    13    7    8 1
    14    7   27 1
    15    7   28 1
    16    8    9 1
    17    8   13 1
    18    8   10 1
    19   10   11 1
    20   10   29 1
    21   10   30 1
    22   11   12 1
    23   11   31 1
    24   11   32 1
    25   12   19 1
    26   12   13 1
    27   12   14 1
    28   13   33 1
    29   13   34 1
    30   14   15 1
    31   14   16 1
    32   14   21 1
    33   16   17 1
    34   16   35 1
    35   16   36 1
    36   17   18 1
    37   17   37 1
    38   17   38 1
    39   18   19 1
    40   18   39 1
    41   18   40 1
    42   19   20 1
    43   20   41 1
    44   21   42 1
@<TRIPOS>MOLECULE
ZINC49351117
   29    30     0     0     0
SMALL
USER_CHARGES

@<TRIPOS>ATOM
      1 C1         -0.0187    1.5258    0.0104 C.3       1 <0>        -0.1467
      2 C2          0.0021   -0.0041    0.0020 C.3       1 <0>        -0.0276
      3 C3          0.7182   -0.4975   -1.2568 C.3       1 <0>        -0.1464
      4 C4          0.7309   -0.5033    1.2229 C.2       1 <0>         0.1651
      5 C5          0.1906   -1.3358    2.2267 C.2       1 <0>        -0.3222
      6 C6          1.1843   -1.5574    3.1610 C.2       1 <0>         0.3788
      7 O1          2.2780   -0.8943    2.7504 O.3       1 <0>        -0.1071
      8 N1          1.9699   -0.2457    1.5312 N.2       1 <0>        -0.3187
      9 N2          1.0736   -2.3194    4.3048 N.pl3     1 <0>        -0.8064
     10 C7         -1.1904   -1.8733    2.2710 C.ar      1 <0>         0.0653
     11 C8         -2.2739   -1.0066    2.4043 C.ar      1 <0>        -0.1542
     12 C9         -3.5598   -1.5124    2.4451 C.ar      1 <0>         0.1375
     13 C10        -3.7724   -2.8782    2.3537 C.ar      1 <0>        -0.1954
     14 C11        -2.6987   -3.7433    2.2211 C.ar      1 <0>         0.1370
     15 C12        -1.4096   -3.2464    2.1736 C.ar      1 <0>        -0.1628
     16 F1         -2.9121   -5.0744    2.1324 F         1 <0>        -0.1286
     17 F2         -4.6107   -0.6735    2.5748 F         1 <0>        -0.1280
     18 H1          1.0039    1.9031    0.0027 H         1 <0>         0.0649
     19 H2         -0.5459    1.8868   -0.8726 H         1 <0>         0.0697
     20 H3         -0.5289    1.8773    0.9072 H         1 <0>         0.0588
     21 H4         -1.0205   -0.3814    0.0098 H         1 <0>         0.0950
     22 H5          1.7408   -0.1202   -1.2645 H         1 <0>         0.0646
     23 H6          0.7330   -1.5874   -1.2628 H         1 <0>         0.0591
     24 H7          0.1910   -0.1364   -2.1398 H         1 <0>         0.0693
     25 H8          0.2358   -2.7610    4.5141 H         1 <0>         0.4277
     26 H9          1.8336   -2.4137    4.9002 H         1 <0>         0.4161
     27 H10        -2.1091    0.0583    2.4760 H         1 <0>         0.1436
     28 H11        -4.7783   -3.2697    2.3864 H         1 <0>         0.1498
     29 H12        -0.5734   -3.9213    2.0653 H         1 <0>         0.1418
@<TRIPOS>BOND
     1    1    2 1
     2    1   18 1
     3    1   19 1
     4    1   20 1
     5    2    3 1
     6    2    4 1
     7    2   21 1
     8    3   22 1
     9    3   23 1
    10    3   24 1
    11    4    8 2
    12    4    5 1
    13    5    6 2
    14    5   10 1
    15    6    7 1
    16    6    9 1
    17    7    8 1
    18    9   25 1
    19    9   26 1
    20   10   15 ar
    21   10   11 ar
    22   11   12 ar
    23   11   27 1
    24   12   13 ar
    25   12   17 1
    26   13   14 ar
    27   13   28 1
    28   14   15 ar
    29   14   16 1
    30   15   29 1
@<TRIPOS>MOLECULE
ZINC58098946
   39    40     0     0     0
SMALL
USER_CHARGES

@<TRIPOS>ATOM
      1 C1         -0.3028    1.6013    0.0176 C.3       1 <0>        -0.1254
      2 C2         -0.1436    0.1038   -0.0382 C.ar      1 <0>        -0.0429
      3 C3         -0.1528   -0.5420   -1.2575 C.ar      1 <0>        -0.1000
      4 C4         -0.0061   -1.9262   -1.3169 C.ar      1 <0>         0.1440
      5 C5          0.1483   -2.6375   -0.1334 C.ar      1 <0>        -0.1396
      6 C6          0.1575   -1.9908    1.0816 C.ar      1 <0>        -0.0609
      7 C7          0.0165   -0.6145    1.1322 C.ar      1 <0>        -0.1322
      8 C8          0.0317    0.0981    2.4600 C.3       1 <0>         0.1487
      9 H1         -0.6569    0.9424    2.4271 H         1 <0>         0.1138
     10 C9          1.4459    0.6044    2.7508 C.3       1 <0>        -0.1414
     11 C10         1.4441    1.3997    4.0579 C.3       1 <0>        -0.0949
     12 C11         2.8796    1.7817    4.4244 C.3       1 <0>        -0.1490
     13 C12         0.6078    2.6687    3.8816 C.3       1 <0>        -0.1513
     14 O1         -0.3719   -0.8059    3.4904 O.3       1 <0>        -0.5527
     15 C13         0.2808   -4.0911   -0.5251 C.3       1 <0>        -0.1146
     16 C14         0.1808   -4.0758   -2.0357 C.2       1 <0>         0.5282
     17 O2          0.2376   -5.0385   -2.7712 O.2       1 <0>        -0.5015
     18 N1          0.0173   -2.7952   -2.4083 N.am      1 <0>        -0.6587
     19 C15        -0.3222    0.2515   -2.5275 C.3       1 <0>        -0.1186
     20 H2          0.6780    2.0734   -0.0401 H         1 <0>         0.0775
     21 H3         -0.9156    1.9331   -0.8205 H         1 <0>         0.0751
     22 H4         -0.7858    1.8807    0.9540 H         1 <0>         0.0728
     23 H5          0.2780   -2.5559    1.9940 H         1 <0>         0.1290
     24 H6          2.1239   -0.2441    2.8427 H         1 <0>         0.0674
     25 H7          1.7767    1.2471    1.9350 H         1 <0>         0.0744
     26 H8          1.0159    0.7900    4.8536 H         1 <0>         0.0783
     27 H9          2.8732    2.3989    5.3229 H         1 <0>         0.0557
     28 H10         3.4604    0.8779    4.6086 H         1 <0>         0.0532
     29 H11         3.3279    2.3406    3.6029 H         1 <0>         0.0532
     30 H12        -0.4148    2.3966    3.6205 H         1 <0>         0.0561
     31 H13         0.6066    3.2353    4.8128 H         1 <0>         0.0555
     32 H14         1.0360    3.2784    3.0859 H         1 <0>         0.0537
     33 H15         0.1971   -1.5829    3.5771 H         1 <0>         0.3726
     34 H16         1.2472   -4.4849   -0.2104 H         1 <0>         0.1243
     35 H17        -0.5304   -4.6782   -0.0946 H         1 <0>         0.1248
     36 H18        -0.0743   -2.5079   -3.3303 H         1 <0>         0.4128
     37 H19         0.6564    0.5539   -2.9002 H         1 <0>         0.0734
     38 H20        -0.8220   -0.3633   -3.2761 H         1 <0>         0.0610
     39 H21        -0.9236    1.1376   -2.3247 H         1 <0>         0.0781
@<TRIPOS>BOND
     1    1    2 1
     2    1   20 1
     3    1   21 1
     4    1   22 1
     5    2    7 ar
     6    2    3 ar
     7    3    4 ar
     8    3   19 1
     9    4   18 1
    10    4    5 ar
    11    5    6 ar
    12    5   15 1
    13    6    7 ar
    14    6   23 1
    15    7    8 1
    16    8    9 1
    17    8   10 1
    18    8   14 1
    19   10   11 1
    20   10   24 1
    21   10   25 1
    22   11   12 1
    23   11   13 1
    24   11   26 1
    25   12   27 1
    26   12   28 1
    27   12   29 1
    28   13   30 1
    29   13   31 1
    30   13   32 1
    31   14   33 1
    32   15   16 1
    33   15   34 1
    34   15   35 1
    35   16   17 2
    36   16   18 am
    37   18   36 1
    38   19   37 1
    39   19   38 1
    40   19   39 1
@<TRIPOS>MOLECULE
ZINC01085078
   32    33     0     0     0
SMALL
USER_CHARGES
2-(4-bromophenyl)sulfanyl-N-(3-nitrophenyl)-acetamide
@<TRIPOS>ATOM
      1 C1         -1.4386    2.1640   -0.7084 C.ar      1 <0>        -0.0935
      2 C2         -2.6258    1.4578   -0.7153 C.ar      1 <0>        -0.0930
      3 C3         -3.7036    1.9073    0.0358 C.ar      1 <0>         0.1504
      4 C4         -3.5842    3.0664    0.7918 C.ar      1 <0>        -0.0629
      5 C5         -2.3947    3.7678    0.7944 C.ar      1 <0>        -0.0218
      6 C6         -1.3248    3.3204    0.0408 C.ar      1 <0>        -0.0692
      7 N1         -2.2666    5.0030    1.5998 N.pl3     1 <0>         0.0252
      8 O1         -3.2101    5.4002    2.2598 O.2       1 <0>        -0.1503
      9 O2         -1.2162    5.6194    1.6065 O.3       1 <0>        -0.1528
     10 N2         -4.9074    1.1940    0.0313 N.am      1 <0>        -0.6673
     11 C7         -6.0797    1.8497    0.1422 C.2       1 <0>         0.5340
     12 O3         -6.0979    3.0625    0.1495 O.2       1 <0>        -0.4874
     13 C8         -7.3678    1.0761    0.2571 C.3       1 <0>        -0.1589
     14 S1         -8.7583    2.2334    0.3904 S.3       1 <0>        -0.0114
     15 C9        -10.1718    1.1888    0.5156 C.ar      1 <0>        -0.0883
     16 C10       -10.0213   -0.1924    0.4896 C.ar      1 <0>        -0.1330
     17 C11       -11.1305   -1.0083    0.5932 C.ar      1 <0>        -0.0684
     18 C12       -12.3919   -0.4518    0.7113 C.ar      1 <0>        -0.0974
     19 C13       -12.5456    0.9232    0.7323 C.ar      1 <0>        -0.0676
     20 C14       -11.4399    1.7445    0.6348 C.ar      1 <0>        -0.0913
     21 Br1       -13.9089   -1.5729    0.8450 Br        1 <0>        -0.0438
     22 H1         -0.5999    1.8149   -1.2924 H         1 <0>         0.1555
     23 H2         -2.7156    0.5571   -1.3045 H         1 <0>         0.1484
     24 H3         -4.4207    3.4184    1.3773 H         1 <0>         0.1655
     25 H4         -0.3971    3.8734    0.0407 H         1 <0>         0.1577
     26 H5         -4.8982    0.2276   -0.0515 H         1 <0>         0.4207
     27 H6         -7.4974    0.4527   -0.6276 H         1 <0>         0.1259
     28 H7         -7.3344    0.4446    1.1449 H         1 <0>         0.1271
     29 H8         -9.0375   -0.6273    0.3929 H         1 <0>         0.1297
     30 H9        -11.0138   -2.0819    0.5775 H         1 <0>         0.1372
     31 H10       -13.5314    1.3545    0.8253 H         1 <0>         0.1409
     32 H11       -11.5605    2.8176    0.6516 H         1 <0>         0.1401
@<TRIPOS>BOND
     1    1    6 ar
     2    1    2 ar
     3    1   22 1
     4    2    3 ar
     5    2   23 1
     6    3    4 ar
     7    3   10 1
     8    4    5 ar
     9    4   24 1
    10    5    6 ar
    11    5    7 1
    12    6   25 1
    13    7    8 2
    14    7    9 1
    15   10   11 am
    16   10   26 1
    17   11   12 2
    18   11   13 1
    19   13   14 1
    20   13   27 1
    21   13   28 1
    22   14   15 1
    23   15   20 ar
    24   15   16 ar
    25   16   17 ar
    26   16   29 1
    27   17   18 ar
    28   17   30 1
    29   18   19 ar
    30   18   21 1
    31   19   20 ar
    32   19   31 1
    33   20   32 1
@<TRIPOS>MOLECULE
ZINC01444735
   46    49     0     0     0
SMALL
USER_CHARGES
N-[(1,3-diphenylpyrazol-4-yl)methyleneamino]benzamide
@<TRIPOS>ATOM
      1 C1          0.6084    6.1113   -0.4290 C.ar      1 <0>        -0.1025
      2 C2          0.5145    5.0819    0.4904 C.ar      1 <0>        -0.1008
      3 C3          1.5292    4.1526    0.5956 C.ar      1 <0>        -0.0419
      4 C4          2.6505    4.2526   -0.2268 C.ar      1 <0>        -0.0271
      5 C5          2.7421    5.2955   -1.1475 C.ar      1 <0>        -0.0906
      6 C6          1.7185    6.2157   -1.2477 C.ar      1 <0>        -0.1292
      7 C7          3.7438    3.2575   -0.1186 C.2       1 <0>         0.1681
      8 C8          3.5912    1.8042   -0.0091 C.2       1 <0>        -0.1877
      9 C9          4.8532    1.2831    0.0724 C.2       1 <0>         0.0951
     10 N1          5.7314    2.3054    0.0117 N.pl3     1 <0>        -0.3158
     11 N2          5.0343    3.5121   -0.1024 N.2       1 <0>        -0.2732
     12 C10         7.1254    2.1781    0.0608 C.ar      1 <0>         0.1553
     13 C11         7.7056    0.9223    0.1817 C.ar      1 <0>        -0.1411
     14 C12         9.0807    0.7996    0.2236 C.ar      1 <0>        -0.0921
     15 C13         9.8792    1.9267    0.1576 C.ar      1 <0>        -0.1268
     16 C14         9.3043    3.1792    0.0429 C.ar      1 <0>        -0.0941
     17 C15         7.9301    3.3080   -0.0057 C.ar      1 <0>        -0.1168
     18 C16         2.3246    1.0512    0.0151 C.2       1 <0>         0.1438
     19 N3          1.1988    1.6684   -0.1775 N.2       1 <0>        -0.2206
     20 N4         -0.0053    0.9526   -0.1545 N.am      1 <0>        -0.5831
     21 C17        -1.1736    1.5923   -0.3600 C.2       1 <0>         0.5744
     22 O1         -1.1830    2.7918   -0.5604 O.2       1 <0>        -0.4865
     23 C18        -2.4434    0.8362   -0.3418 C.ar      1 <0>        -0.1327
     24 C19        -2.4357   -0.5417   -0.1177 C.ar      1 <0>        -0.0891
     25 C20        -3.6249   -1.2405   -0.0967 C.ar      1 <0>        -0.1262
     26 C21        -4.8226   -0.5806   -0.3076 C.ar      1 <0>        -0.0909
     27 C22        -4.8368    0.7840   -0.5359 C.ar      1 <0>        -0.1252
     28 C23        -3.6553    1.4958   -0.5543 C.ar      1 <0>        -0.0555
     29 H1         -0.1884    6.8361   -0.5081 H         1 <0>         0.1194
     30 H2         -0.3544    5.0056    1.1272 H         1 <0>         0.1190
     31 H3          1.4548    3.3491    1.3135 H         1 <0>         0.1158
     32 H4          3.6103    5.3805   -1.7841 H         1 <0>         0.1195
     33 H5          1.7865    7.0216   -1.9634 H         1 <0>         0.1217
     34 H6          5.1030    0.2366    0.1662 H         1 <0>         0.1890
     35 H7          7.0824    0.0421    0.2385 H         1 <0>         0.1309
     36 H8          9.5326   -0.1772    0.3131 H         1 <0>         0.1344
     37 H9         10.9540    1.8286    0.1954 H         1 <0>         0.1302
     38 H10         9.9306    4.0575   -0.0084 H         1 <0>         0.1337
     39 H11         7.4817    4.2864   -0.0957 H         1 <0>         0.1391
     40 H12         2.3329   -0.0140    0.1931 H         1 <0>         0.1228
     41 H13         0.0021   -0.0041    0.0054 H         1 <0>         0.3822
     42 H14        -1.5012   -1.0587    0.0426 H         1 <0>         0.1231
     43 H15        -3.6207   -2.3059    0.0803 H         1 <0>         0.1305
     44 H16        -5.7504   -1.1331   -0.2942 H         1 <0>         0.1295
     45 H17        -5.7751    1.2931   -0.6998 H         1 <0>         0.1328
     46 H18        -3.6677    2.5608   -0.7330 H         1 <0>         0.1391
@<TRIPOS>BOND
     1    1    6 ar
     2    1    2 ar
     3    1   29 1
     4    2    3 ar
     5    2   30 1
     6    3    4 ar
     7    3   31 1
     8    4    5 ar
     9    4    7 1
    10    5    6 ar
    11    5   32 1
    12    6   33 1
    13    7   11 2
    14    7    8 1
    15    8    9 2
    16    8   18 1
    17    9   10 1
    18    9   34 1
    19   10   11 1
    20   10   12 1
    21   12   17 ar
    22   12   13 ar
    23   13   14 ar
    24   13   35 1
    25   14   15 ar
    26   14   36 1
    27   15   16 ar
    28   15   37 1
    29   16   17 ar
    30   16   38 1
    31   17   39 1
    32   18   19 2
    33   18   40 1
    34   19   20 1
    35   20   21 am
    36   20   41 1
    37   21   22 2
    38   21   23 1
    39   23   28 ar
    40   23   24 ar
    41   24   25 ar
    42   24   42 1
    43   25   26 ar
    44   25   43 1
    45   26   27 ar
    46   26   44 1
    47   27   28 ar
    48   27   45 1
    49   28   46 1
@<TRIPOS>MOLECULE
ZINC16837999
   53    56     0     0     0
SMALL
USER_CHARGES
N-(o-tolyl)-2-[[2-(1-piperidyl)-8-quinolyl]oxy]acetamide
@<TRIPOS>ATOM
      1 C1         -8.4864   -1.5875   -0.9696 C.3       1 <0>        -0.1160
      2 C2         -8.3788   -0.2367   -0.3102 C.ar      1 <0>        -0.1166
      3 C3         -9.4975    0.5646   -0.1890 C.ar      1 <0>        -0.1002
      4 C4         -9.3998    1.8036    0.4167 C.ar      1 <0>        -0.1324
      5 C5         -8.1826    2.2449    0.9030 C.ar      1 <0>        -0.1032
      6 C6         -7.0616    1.4466    0.7893 C.ar      1 <0>        -0.1273
      7 C7         -7.1552    0.2036    0.1767 C.ar      1 <0>         0.1465
      8 N1         -6.0202   -0.6057    0.0555 N.am      1 <0>        -0.6667
      9 C8         -4.7929   -0.0487    0.0504 C.2       1 <0>         0.5141
     10 O1         -4.6747    1.1584    0.0499 O.2       1 <0>        -0.4840
     11 C9         -3.5674   -0.9257    0.0454 C.3       1 <0>         0.0380
     12 O2         -2.3960   -0.1074    0.0406 O.3       1 <0>        -0.2656
     13 C10        -1.1969   -0.7466    0.0357 C.ar      1 <0>         0.1485
     14 C11        -1.1450   -2.1217    0.0360 C.ar      1 <0>        -0.2050
     15 C12         0.0765   -2.7892    0.0315 C.ar      1 <0>        -0.0863
     16 C13         1.2510   -2.0993    0.0267 C.ar      1 <0>        -0.1233
     17 C14         1.2379   -0.6958    0.0262 C.ar      1 <0>        -0.0910
     18 C15         0.0024   -0.0055    0.0308 C.ar      1 <0>         0.1425
     19 N2         -0.0155    1.3321    0.0300 N.ar      1 <0>        -0.4926
     20 C16         1.1010    2.0303    0.0249 C.ar      1 <0>         0.3329
     21 C17         2.3564    1.4054    0.0210 C.ar      1 <0>        -0.1641
     22 C18         2.4376    0.0456    0.0211 C.ar      1 <0>        -0.0480
     23 N3          1.0338    3.4163    0.0239 N.pl3     1 <0>        -0.4748
     24 C19         1.7826    3.9804    1.1541 C.3       1 <0>         0.0593
     25 C20         1.8090    5.5063    1.0396 C.3       1 <0>        -0.1177
     26 C21         0.3730    6.0380    1.0383 C.3       1 <0>        -0.1248
     27 C22        -0.3987    5.3983   -0.1191 C.3       1 <0>        -0.1217
     28 C23        -0.3610    3.8755    0.0289 C.3       1 <0>         0.0684
     29 H1         -8.7206   -2.3412   -0.2178 H         1 <0>         0.0722
     30 H2         -9.2773   -1.5639   -1.7192 H         1 <0>         0.0735
     31 H3         -7.5389   -1.8344   -1.4487 H         1 <0>         0.0617
     32 H4        -10.4494    0.2227   -0.5675 H         1 <0>         0.1266
     33 H5        -10.2759    2.4281    0.5105 H         1 <0>         0.1241
     34 H6         -8.1097    3.2129    1.3763 H         1 <0>         0.1261
     35 H7         -6.1123    1.7898    1.1733 H         1 <0>         0.1448
     36 H8         -6.1166   -1.5675   -0.0249 H         1 <0>         0.4119
     37 H9         -3.5746   -1.5551   -0.8445 H         1 <0>         0.0978
     38 H10        -3.5674   -1.5550    0.9354 H         1 <0>         0.0989
     39 H11        -2.0633   -2.6901    0.0402 H         1 <0>         0.1332
     40 H12         0.0932   -3.8690    0.0315 H         1 <0>         0.1304
     41 H13         2.1908   -2.6315    0.0232 H         1 <0>         0.1317
     42 H14         3.2572    2.0011    0.0168 H         1 <0>         0.1416
     43 H15         3.3961   -0.4519    0.0171 H         1 <0>         0.1461
     44 H16         1.2997    3.6946    2.0885 H         1 <0>         0.0468
     45 H17         2.8031    3.5976    1.1409 H         1 <0>         0.0838
     46 H18         2.3041    5.7931    0.1119 H         1 <0>         0.0747
     47 H19         2.3515    5.9255    1.8870 H         1 <0>         0.0739
     48 H20         0.3857    7.1207    0.9133 H         1 <0>         0.0677
     49 H21        -0.1099    5.7849    1.9821 H         1 <0>         0.0610
     50 H22         0.0617    5.6834   -1.0651 H         1 <0>         0.0707
     51 H23        -1.4335    5.7403   -0.0996 H         1 <0>         0.0727
     52 H24        -0.8975    3.4165   -0.8015 H         1 <0>         0.0883
     53 H25        -0.8339    3.5902    0.9687 H         1 <0>         0.0511
@<TRIPOS>BOND
     1    1    2 1
     2    1   29 1
     3    1   30 1
     4    1   31 1
     5    2    7 ar
     6    2    3 ar
     7    3    4 ar
     8    3   32 1
     9    4    5 ar
    10    4   33 1
    11    5    6 ar
    12    5   34 1
    13    6    7 ar
    14    6   35 1
    15    7    8 1
    16    8    9 am
    17    8   36 1
    18    9   10 2
    19    9   11 1
    20   11   12 1
    21   11   37 1
    22   11   38 1
    23   12   13 1
    24   13   18 ar
    25   13   14 ar
    26   14   15 ar
    27   14   39 1
    28   15   16 ar
    29   15   40 1
    30   16   17 ar
    31   16   41 1
    32   17   22 ar
    33   17   18 ar
    34   18   19 ar
    35   19   20 ar
    36   20   21 ar
    37   20   23 1
    38   21   22 ar
    39   21   42 1
    40   22   43 1
    41   23   28 1
    42   23   24 1
    43   24   25 1
    44   24   44 1
    45   24   45 1
    46   25   26 1
    47   25   46 1
    48   25   47 1
    49   26   27 1
    50   26   48 1
    51   26   49 1
    52   27   28 1
    53   27   50 1
    54   27   51 1
    55   28   52 1
    56   28   53 1
@<TRIPOS>MOLECULE
ZINC00754091
   47    49     0     0     0
SMALL
USER_CHARGES

@<TRIPOS>ATOM
      1 C1         -0.0187    1.5258    0.0104 C.3       1 <0>        -0.1518
      2 C2          0.0021   -0.0041    0.0020 C.3       1 <0>         0.0595
      3 O1          0.6709   -0.4649   -1.1737 O.3       1 <0>        -0.3374
      4 C3          0.7755   -1.7935   -1.3341 C.2       1 <0>         0.4762
      5 O2          0.3143   -2.5404   -0.5039 O.2       1 <0>        -0.4625
      6 C4          1.4679   -2.3535   -2.5498 C.3       1 <0>         0.1065
      7 C5          1.4169   -3.8830   -2.5171 C.3       1 <0>         0.0051
      8 H1          1.6919   -4.2297   -1.5210 H         1 <0>         0.1296
      9 C6          0.0426   -4.3769   -2.8489 C.2       1 <0>        -0.0799
     10 C7         -0.8809   -3.6932   -3.4736 C.2       1 <0>        -0.0880
     11 C8         -0.7049   -2.2751   -3.9413 C.3       1 <0>         0.0413
     12 H2         -1.0080   -2.1946   -4.9852 H         1 <0>         0.1452
     13 C9          0.7533   -1.8933   -3.8057 C.2       1 <0>         0.2123
     14 N1          1.3546   -1.2146   -4.7082 N.2       1 <0>        -0.6058
     15 C10        -1.5311   -1.3779   -3.1172 C.1       1 <0>         0.1987
     16 N2         -2.1688   -0.6854   -2.4813 N.1       1 <0>        -0.3800
     17 C11        -2.1762   -4.3551   -3.7363 C.ar      1 <0>        -0.0601
     18 C12        -2.5778   -4.6136   -5.0474 C.ar      1 <0>        -0.1039
     19 C13        -3.7881   -5.2317   -5.2858 C.ar      1 <0>        -0.1179
     20 C14        -4.6030   -5.5945   -4.2284 C.ar      1 <0>        -0.1125
     21 C15        -4.2109   -5.3405   -2.9262 C.ar      1 <0>        -0.1170
     22 C16        -3.0000   -4.7291   -2.6740 C.ar      1 <0>        -0.0999
     23 C17         2.3965   -4.4333   -3.5214 C.ar      1 <0>        -0.0949
     24 C18         2.2660   -4.1148   -4.8603 C.ar      1 <0>        -0.1001
     25 C19         3.1645   -4.6197   -5.7815 C.ar      1 <0>        -0.1145
     26 C20         4.1937   -5.4426   -5.3639 C.ar      1 <0>        -0.1084
     27 C21         4.3247   -5.7604   -4.0250 C.ar      1 <0>        -0.1160
     28 C22         3.4287   -5.2521   -3.1031 C.ar      1 <0>        -0.0995
     29 C23         2.8682   -1.9006   -2.5787 C.1       1 <0>         0.2194
     30 N3          3.9489   -1.5511   -2.6010 N.1       1 <0>        -0.3628
     31 H3          1.0039    1.9031    0.0027 H         1 <0>         0.0682
     32 H4         -0.5459    1.8868   -0.8726 H         1 <0>         0.0679
     33 H5         -0.5289    1.8773    0.9072 H         1 <0>         0.0845
     34 H6          0.5293   -0.3651    0.8851 H         1 <0>         0.0738
     35 H7         -1.0205   -0.3814    0.0098 H         1 <0>         0.0751
     36 H8         -0.2070   -5.3833   -2.5468 H         1 <0>         0.1421
     37 H9          0.8752   -0.9320   -5.5027 H         1 <0>         0.3619
     38 H10        -1.9427   -4.3302   -5.8737 H         1 <0>         0.1252
     39 H11        -4.1000   -5.4324   -6.3001 H         1 <0>         0.1257
     40 H12        -5.5496   -6.0777   -4.4203 H         1 <0>         0.1237
     41 H13        -4.8520   -5.6255   -2.1051 H         1 <0>         0.1253
     42 H14        -2.6927   -4.5360   -1.6568 H         1 <0>         0.1256
     43 H15         1.4619   -3.4719   -5.1865 H         1 <0>         0.1171
     44 H16         3.0622   -4.3714   -6.8276 H         1 <0>         0.1245
     45 H17         4.8953   -5.8376   -6.0838 H         1 <0>         0.1247
     46 H18         5.1286   -6.4036   -3.6987 H         1 <0>         0.1267
     47 H19         3.5332   -5.4973   -2.0565 H         1 <0>         0.1272
@<TRIPOS>BOND
     1    1    2 1
     2    1   31 1
     3    1   32 1
     4    1   33 1
     5    2    3 1
     6    2   34 1
     7    2   35 1
     8    3    4 1
     9    4    5 2
    10    4    6 1
    11    6   13 1
    12    6    7 1
    13    6   29 1
    14    7    8 1
    15    7    9 1
    16    7   23 1
    17    9   10 2
    18    9   36 1
    19   10   11 1
    20   10   17 1
    21   11   12 1
    22   11   13 1
    23   11   15 1
    24   13   14 2
    25   14   37 1
    26   15   16 3
    27   17   22 ar
    28   17   18 ar
    29   18   19 ar
    30   18   38 1
    31   19   20 ar
    32   19   39 1
    33   20   21 ar
    34   20   40 1
    35   21   22 ar
    36   21   41 1
    37   22   42 1
    38   23   28 ar
    39   23   24 ar
    40   24   25 ar
    41   24   43 1
    42   25   26 ar
    43   25   44 1
    44   26   27 ar
    45   26   45 1
    46   27   28 ar
    47   27   46 1
    48   28   47 1
    49   29   30 3
@<TRIPOS>MOLECULE
ZINC55270673
   41    43     0     0     0
SMALL
USER_CHARGES

@<TRIPOS>ATOM
      1 C1         -1.0885    1.3235    0.0657 C.3       1 <0>        -0.0519
      2 C2         -0.4827   -0.0556    0.0183 C.2       1 <0>        -0.2254
      3 C3         -0.1503   -0.7694   -1.1363 C.2       1 <0>         0.0649
      4 N1          0.3507   -1.9234   -0.7766 N.2       1 <0>        -0.2799
      5 N2          0.3554   -1.9858    0.6227 N.pl3     1 <0>        -0.3786
      6 C4         -0.1565   -0.8253    1.0924 C.2       1 <0>         0.3068
      7 N3         -0.3227   -0.4810    2.4338 N.am      1 <0>        -0.6499
      8 C5         -0.2164    0.8066    2.8172 C.2       1 <0>         0.5145
      9 O1          0.1391    1.6493    2.0205 O.2       1 <0>        -0.4818
     10 C6         -0.5393    1.1995    4.2358 C.3       1 <0>        -0.0928
     11 C7         -0.4680    2.6988    4.3704 C.ar      1 <0>        -0.1222
     12 C8          0.7436    3.3238    4.6265 C.ar      1 <0>        -0.0407
     13 C9          0.7623    4.7044    4.7426 C.ar      1 <0>        -0.1510
     14 C10        -0.4203    5.4090    4.6001 C.ar      1 <0>         0.1785
     15 N4         -1.5546    4.7803    4.3568 N.ar      1 <0>        -0.4748
     16 C11        -1.6075    3.4679    4.2346 C.ar      1 <0>         0.1354
     17 Cl1        -0.4115    7.1390    4.7437 Cl        1 <0>        -0.0271
     18 C12         0.8349   -3.1074    1.4340 C.3       1 <0>         0.1736
     19 C13         2.3336   -3.0253    1.5688 C.ar      1 <0>        -0.1099
     20 C14         3.1463   -3.6734    0.6576 C.ar      1 <0>        -0.0751
     21 C15         4.5209   -3.5982    0.7811 C.ar      1 <0>        -0.1148
     22 C16         5.0840   -2.8746    1.8160 C.ar      1 <0>        -0.0948
     23 C17         4.2726   -2.2262    2.7276 C.ar      1 <0>        -0.1125
     24 C18         2.8964   -2.2965    2.6012 C.ar      1 <0>        -0.0142
     25 Cl2         1.8766   -1.4768    3.7421 Cl        1 <0>        -0.0747
     26 H1         -0.2975    2.0703   -0.0027 H         1 <0>         0.0726
     27 H2         -1.7776    1.4465   -0.7698 H         1 <0>         0.0505
     28 H3         -1.6285    1.4511    1.0039 H         1 <0>         0.0504
     29 H4         -0.2845   -0.4273   -2.1519 H         1 <0>         0.1866
     30 H5         -0.5148   -1.1684    3.0907 H         1 <0>         0.4077
     31 H6         -1.5439    0.8595    4.4873 H         1 <0>         0.1140
     32 H7          0.1802    0.7393    4.9130 H         1 <0>         0.1077
     33 H8          1.6509    2.7478    4.7333 H         1 <0>         0.1430
     34 H9          1.6878    5.2240    4.9421 H         1 <0>         0.1480
     35 H10        -2.5536    2.9887    4.0307 H         1 <0>         0.1643
     36 H11         0.3781   -3.0622    2.4226 H         1 <0>         0.0990
     37 H12         0.5645   -4.0467    0.9515 H         1 <0>         0.1102
     38 H13         2.7070   -4.2391   -0.1508 H         1 <0>         0.1376
     39 H14         5.1554   -4.1050    0.0691 H         1 <0>         0.1345
     40 H15         6.1581   -2.8165    1.9122 H         1 <0>         0.1362
     41 H16         4.7125   -1.6613    3.5362 H         1 <0>         0.1363
@<TRIPOS>BOND
     1    1    2 1
     2    1   26 1
     3    1   27 1
     4    1   28 1
     5    2    6 2
     6    2    3 1
     7    3    4 2
     8    3   29 1
     9    4    5 1
    10    5    6 1
    11    5   18 1
    12    6    7 1
    13    7    8 am
    14    7   30 1
    15    8    9 2
    16    8   10 1
    17   10   11 1
    18   10   31 1
    19   10   32 1
    20   11   16 ar
    21   11   12 ar
    22   12   13 ar
    23   12   33 1
    24   13   14 ar
    25   13   34 1
    26   14   15 ar
    27   14   17 1
    28   15   16 ar
    29   16   35 1
    30   18   19 1
    31   18   36 1
    32   18   37 1
    33   19   24 ar
    34   19   20 ar
    35   20   21 ar
    36   20   38 1
    37   21   22 ar
    38   21   39 1
    39   22   23 ar
    40   22   40 1
    41   23   24 ar
    42   23   41 1
    43   24   25 1
@<TRIPOS>MOLECULE
ZINC05001822
   60    62     0     0     0
SMALL
USER_CHARGES
1-(2-diethylaminoethyl)-N-(2-methylcyclohexyl)-2-oxo-3H-benzoimidazole-5-carboxamide
@<TRIPOS>ATOM
      1 C1         -7.2932    4.6985   -8.2151 C.3       1 <0>        -0.1881
      2 C2         -5.9661    5.3178   -8.6582 C.3       1 <0>        -0.0151
      3 C3         -6.1409    7.0706   -6.9969 C.3       1 <0>        -0.0112
      4 C4         -6.0971    8.2382   -7.9846 C.3       1 <0>        -0.1879
      5 C5         -5.0308    4.9897   -6.4491 C.3       1 <0>        -0.0341
      6 C6         -3.9796    3.9946   -6.9449 C.3       1 <0>         0.1112
      7 N1         -3.6913    3.0218   -5.8882 N.am      1 <0>        -0.5370
      8 C7         -2.7132    3.1513   -4.9107 C.ar      1 <0>         0.0983
      9 C8         -1.7757    4.1379   -4.6300 C.ar      1 <0>        -0.1106
     10 C9         -0.9179    3.9901   -3.5636 C.ar      1 <0>        -0.0717
     11 C10        -0.9786    2.8420   -2.7673 C.ar      1 <0>        -0.1110
     12 C11        -1.9189    1.8486   -3.0465 C.ar      1 <0>        -0.0375
     13 C12        -2.7829    2.0033   -4.1146 C.ar      1 <0>         0.0924
     14 N2         -3.8047    1.2131   -4.6380 N.am      1 <0>        -0.6341
     15 H1         -4.0889    0.3513   -4.2955 H         1 <0>         0.4451
     16 C13        -4.3296    1.8516   -5.7008 C.2       1 <0>         0.6865
     17 O1         -5.2424    1.4338   -6.3884 O.2       1 <0>        -0.5408
     18 C14        -0.0528    2.6834   -1.6284 C.2       1 <0>         0.5574
     19 O2         -0.1092    1.6875   -0.9333 O.2       1 <0>        -0.5258
     20 N3          0.8548    3.6427   -1.3591 N.am      1 <0>        -0.7118
     21 C15         1.7735    3.4853   -0.2289 C.3       1 <0>         0.1513
     22 H2          2.0399    2.4339   -0.1208 H         1 <0>         0.0929
     23 C16         1.0944    3.9736    1.0522 C.3       1 <0>        -0.1333
     24 C17         0.7205    5.4494    0.9006 C.3       1 <0>        -0.1173
     25 C18         1.9852    6.2726    0.6482 C.3       1 <0>        -0.1240
     26 C19         2.6644    5.7843   -0.6329 C.3       1 <0>        -0.1143
     27 C20         3.0383    4.3085   -0.4812 C.3       1 <0>        -0.1015
     28 H3          3.7218    4.1914    0.3597 H         1 <0>         0.0899
     29 C21         3.7174    3.8202   -1.7623 C.3       1 <0>        -0.1489
     30 H4         -7.9547    5.4823   -7.8460 H         1 <0>         0.0806
     31 H5         -7.7611    4.1973   -9.0624 H         1 <0>         0.1084
     32 H6         -7.1092    3.9747   -7.4211 H         1 <0>         0.0824
     33 H7         -6.1527    6.0592   -9.4351 H         1 <0>         0.1339
     34 H8         -5.3137    4.5373   -9.0497 H         1 <0>         0.1291
     35 H9         -7.1707    6.7336   -6.8781 H         1 <0>         0.1341
     36 H10        -5.7515    7.3959   -6.0322 H         1 <0>         0.1295
     37 H11        -5.0676    8.5769   -8.1014 H         1 <0>         0.0811
     38 H12        -6.4840    7.9121   -8.9500 H         1 <0>         0.0806
     39 H13        -6.7083    9.0575   -7.6061 H         1 <0>         0.1075
     40 H14        -5.9439    4.4542   -6.1892 H         1 <0>         0.1413
     41 H15        -4.6520    5.5102   -5.5695 H         1 <0>         0.1361
     42 H16        -3.0665    4.5301   -7.2048 H         1 <0>         0.1133
     43 H17        -4.3584    3.4741   -7.8245 H         1 <0>         0.1168
     44 H18        -1.7235    5.0236   -5.2458 H         1 <0>         0.1359
     45 H19        -0.1932    4.7603   -3.3443 H         1 <0>         0.1401
     46 H20        -1.9714    0.9631   -2.4305 H         1 <0>         0.1528
     47 H21         0.8997    4.4373   -1.9136 H         1 <0>         0.3973
     48 H22         0.1933    3.3871    1.2320 H         1 <0>         0.0693
     49 H23         1.7779    3.8565    1.8932 H         1 <0>         0.0760
     50 H24         0.2366    5.7973    1.8133 H         1 <0>         0.0638
     51 H25         0.0369    5.5665    0.0597 H         1 <0>         0.0577
     52 H26         2.6688    6.1555    1.4891 H         1 <0>         0.0667
     53 H27         1.7188    7.3240    0.5402 H         1 <0>         0.0637
     54 H28         3.5654    6.3708   -0.8127 H         1 <0>         0.0695
     55 H29         1.9808    5.9014   -1.4738 H         1 <0>         0.0553
     56 H30         3.0339    3.9373   -2.6033 H         1 <0>         0.0523
     57 H31         4.6184    4.4067   -1.9421 H         1 <0>         0.0602
     58 H32         3.9838    2.7688   -1.6543 H         1 <0>         0.0586
     59 N4         -5.2949    5.9762   -7.5176 N.4       1 <0>        -0.3915
     60 H33        -4.4016    6.3685   -7.8376 H         1 <0>         0.4285
@<TRIPOS>BOND
     1    1    2 1
     2    1   30 1
     3    1   31 1
     4    1   32 1
     5    2   33 1
     6    2   34 1
     7    2   59 1
     8    3    4 1
     9    3   35 1
    10    3   36 1
    11    3   59 1
    12    4   37 1
    13    4   38 1
    14    4   39 1
    15    5    6 1
    16    5   40 1
    17    5   41 1
    18    5   59 1
    19    6    7 1
    20    6   42 1
    21    6   43 1
    22    7   16 am
    23    7    8 1
    24    8   13 ar
    25    8    9 ar
    26    9   10 ar
    27    9   44 1
    28   10   11 ar
    29   10   45 1
    30   11   12 ar
    31   11   18 1
    32   12   13 ar
    33   12   46 1
    34   13   14 1
    35   14   15 1
    36   14   16 am
    37   16   17 2
    38   18   19 2
    39   18   20 am
    40   20   21 1
    41   20   47 1
    42   21   22 1
    43   21   27 1
    44   21   23 1
    45   23   24 1
    46   23   48 1
    47   23   49 1
    48   24   25 1
    49   24   50 1
    50   24   51 1
    51   25   26 1
    52   25   52 1
    53   25   53 1
    54   26   27 1
    55   26   54 1
    56   26   55 1
    57   27   28 1
    58   27   29 1
    59   29   56 1
    60   29   57 1
    61   29   58 1
    62   59   60 1
@<TRIPOS>MOLECULE
ZINC25315327
   52    55     0     0     0
SMALL
USER_CHARGES
2-[[1-[[4-(2-fluorophenyl)piperazin-1-yl]methyl]benzimidazol-2-yl]amino]ethanol
@<TRIPOS>ATOM
      1 C1          1.9339   -0.2471    6.1636 C.ar      1 <0>        -0.0871
      2 C2          0.9140    0.4548    6.7889 C.ar      1 <0>        -0.0780
      3 C3         -0.0421    1.1117    6.0420 C.ar      1 <0>        -0.0830
      4 C4          0.0157    1.0708    4.6572 C.ar      1 <0>         0.0947
      5 C5          1.0463    0.3615    4.0189 C.ar      1 <0>         0.0544
      6 C6          2.0067   -0.2983    4.7896 C.ar      1 <0>        -0.0813
      7 N1          0.8501    0.4894    2.6802 N.pl3     1 <0>        -0.5585
      8 C7         -0.2109    1.2249    2.4594 C.cat     1 <0>         0.6527
      9 N2         -0.7657    1.6074    3.6470 N.pl3     1 <0>        -0.4690
     10 C8         -1.9647    2.4312    3.8204 C.3       1 <0>         0.2742
     11 N3         -3.1497    1.5650    3.8792 N.3       1 <0>        -0.5525
     12 C9         -3.3747    0.8925    2.5921 C.3       1 <0>         0.0416
     13 C10        -4.5674   -0.0584    2.7180 C.3       1 <0>         0.0455
     14 N4         -5.7564    0.7027    3.1262 N.pl3     1 <0>        -0.4867
     15 C11        -5.5313    1.3753    4.4133 C.3       1 <0>         0.0544
     16 C12        -4.3387    2.3261    4.2874 C.3       1 <0>         0.0607
     17 C13        -6.8845   -0.1219    3.1821 C.ar      1 <0>         0.0753
     18 C14        -8.1282    0.4196    3.4775 C.ar      1 <0>        -0.1080
     19 C15        -9.2415   -0.3969    3.5283 C.ar      1 <0>        -0.1003
     20 C16        -9.1176   -1.7540    3.2943 C.ar      1 <0>        -0.1079
     21 C17        -7.8802   -2.2990    3.0043 C.ar      1 <0>        -0.1264
     22 C18        -6.7622   -1.4872    2.9476 C.ar      1 <0>         0.0487
     23 F1         -5.5530   -2.0197    2.6652 F         1 <0>        -0.1390
     24 N5         -0.6984    1.5583    1.2133 N.pl3     1 <0>        -0.6903
     25 C19        -0.0127    1.0858    0.0080 C.3       1 <0>         0.1071
     26 C20        -0.7527    1.5927   -1.2315 C.3       1 <0>         0.0725
     27 O1         -0.6718    3.0184   -1.2848 O.3       1 <0>        -0.6080
     28 H1          2.6764   -0.7577    6.7590 H         1 <0>         0.1510
     29 H2          0.8680    0.4873    7.8674 H         1 <0>         0.1507
     30 H3         -0.8335    1.6568    6.5349 H         1 <0>         0.1442
     31 H4          2.8037   -0.8464    4.3093 H         1 <0>         0.1471
     32 H5         -1.8832    3.0050    4.7553 H         1 <0>         0.1353
     33 H6         -2.0591    3.1246    2.9717 H         1 <0>         0.0831
     34 H7         -3.5843    1.6446    1.8172 H         1 <0>         0.0507
     35 H8         -2.4766    0.3210    2.3150 H         1 <0>         0.0741
     36 H9         -4.7553   -0.5414    1.7477 H         1 <0>         0.1009
     37 H10        -4.3456   -0.8268    3.4732 H         1 <0>         0.0724
     38 H11        -6.4294    1.9468    4.6903 H         1 <0>         0.1000
     39 H12        -5.3217    0.6233    5.1883 H         1 <0>         0.0583
     40 H13        -4.1496    2.8092    5.2574 H         1 <0>         0.0992
     41 H14        -4.5594    3.0946    3.5319 H         1 <0>         0.0612
     42 H15        -8.2259    1.4788    3.6646 H         1 <0>         0.1368
     43 H16       -10.2095    0.0250    3.7547 H         1 <0>         0.1367
     44 H17        -9.9894   -2.3900    3.3384 H         1 <0>         0.1372
     45 H18        -7.7868   -3.3595    2.8224 H         1 <0>         0.1383
     46 H19        -1.6021    2.1790    1.1243 H         1 <0>         0.4620
     47 H20         1.0193    1.4665    0.0002 H         1 <0>         0.0925
     48 H21         0.0022   -0.0141    0.0020 H         1 <0>         0.0993
     49 H22        -0.2916    1.1653   -2.1341 H         1 <0>         0.0799
     50 H23        -1.8081    1.2871   -1.1790 H         1 <0>         0.0603
     51 H24        -1.1484    3.5658   -2.1113 H         1 <0>         0.4323
     52 H25         1.5410    0.0052    1.9743 H         1 <0>         0.4904
@<TRIPOS>BOND
     1    1    6 ar
     2    1    2 ar
     3    1   28 1
     4    2    3 ar
     5    2   29 1
     6    3    4 ar
     7    3   30 1
     8    4    9 1
     9    4    5 ar
    10    5    6 ar
    11    5    7 1
    12    6   31 1
    13    7    8 2
    14    7   52 1
    15    8    9 1
    16    8   24 1
    17    9   10 1
    18   10   11 1
    19   10   32 1
    20   10   33 1
    21   11   16 1
    22   11   12 1
    23   12   13 1
    24   12   34 1
    25   12   35 1
    26   13   14 1
    27   13   36 1
    28   13   37 1
    29   14   15 1
    30   14   17 1
    31   15   16 1
    32   15   38 1
    33   15   39 1
    34   16   40 1
    35   16   41 1
    36   17   22 ar
    37   17   18 ar
    38   18   19 ar
    39   18   42 1
    40   19   20 ar
    41   19   43 1
    42   20   21 ar
    43   20   44 1
    44   21   22 ar
    45   21   45 1
    46   22   23 1
    47   24   25 1
    48   24   46 1
    49   25   26 1
    50   25   47 1
    51   25   48 1
    52   26   27 1
    53   26   49 1
    54   26   50 1
    55   27   51 1
@<TRIPOS>MOLECULE
ZINC50080821
   62    64     0     0     0
SMALL
USER_CHARGES

@<TRIPOS>ATOM
      1 C1         -0.0014    1.5249   -0.0192 C.3       1 <0>        -0.1863
      2 C2          0.0068   -0.0050   -0.0058 C.3       1 <0>         0.0282
      3 H1          0.5164   -0.3730   -0.8964 H         1 <0>         0.1369
      4 C3         -1.4333   -0.5221    0.0072 C.3       1 <0>        -0.1408
      5 C4         -1.4200   -2.0534    0.0203 C.3       1 <0>        -0.1393
      6 C5         -0.6188   -2.5368    1.2325 C.3       1 <0>        -0.1458
      7 C6          0.7911   -1.9451    1.1740 C.3       1 <0>        -0.0143
      8 N1          0.7111   -0.4795    1.1914 N.4       1 <0>        -0.3760
      9 C7          2.0680    0.0827    1.2145 C.3       1 <0>        -0.0293
     10 C8          2.7602   -0.3090    2.5215 C.3       1 <0>         0.1178
     11 N2          4.1135    0.2517    2.5445 N.am      1 <0>        -0.7462
     12 C9          4.9148    0.0347    3.6062 C.2       1 <0>         0.7076
     13 O1          4.5146   -0.6264    4.5450 O.2       1 <0>        -0.5662
     14 N3          6.1598    0.5505    3.6274 N.am      1 <0>        -0.6726
     15 C10         6.9596    0.4048    4.7696 C.ar      1 <0>         0.0835
     16 C11         7.8260    1.4227    5.1447 C.ar      1 <0>        -0.0857
     17 C12         8.6135    1.2796    6.2698 C.ar      1 <0>        -0.1820
     18 C13         8.5388    0.1173    7.0263 C.ar      1 <0>         0.2179
     19 C14         7.6721   -0.9008    6.6508 C.ar      1 <0>        -0.1837
     20 C15         6.8810   -0.7551    5.5287 C.ar      1 <0>        -0.0620
     21 N4          9.3371   -0.0281    8.1662 N.pl3     1 <0>        -0.6317
     22 C16         9.3685   -1.2962    8.9122 C.3       1 <0>         0.0908
     23 C17         9.1322   -0.9904   10.3956 C.3       1 <0>         0.0741
     24 H2          8.1112   -0.6356   10.5361 H         1 <0>         0.0617
     25 O2         10.0512    0.0190   10.8203 O.3       1 <0>        -0.3725
     26 C18         9.8949    1.2721   10.1502 C.3       1 <0>         0.0743
     27 H3          8.8767    1.6352   10.2898 H         1 <0>         0.0620
     28 C19        10.1746    1.0804    8.6509 C.3       1 <0>         0.0915
     29 C20        10.8831    2.2873   10.7280 C.3       1 <0>        -0.1463
     30 C21         9.3498   -2.2607   11.2202 C.3       1 <0>        -0.1462
     31 H4          1.0243    1.8936   -0.0296 H         1 <0>         0.0820
     32 H5         -0.5234    1.8777   -0.9086 H         1 <0>         0.1074
     33 H6         -0.5109    1.8933    0.8712 H         1 <0>         0.0824
     34 H7         -1.9438   -0.1549    0.8976 H         1 <0>         0.0890
     35 H8         -1.9545   -0.1702   -0.8831 H         1 <0>         0.1128
     36 H9         -2.4421   -2.4262    0.0867 H         1 <0>         0.0957
     37 H10        -0.9552   -2.4216   -0.8943 H         1 <0>         0.0821
     38 H11        -1.1124   -2.2115    2.1483 H         1 <0>         0.0890
     39 H12        -0.5578   -3.6250    1.2180 H         1 <0>         0.1139
     40 H13         1.3644   -2.2875    2.0356 H         1 <0>         0.1339
     41 H14         1.2839   -2.2712    0.2581 H         1 <0>         0.1305
     42 H15         2.6374   -0.3074    0.3708 H         1 <0>         0.1371
     43 H16         2.0125    1.1690    1.1441 H         1 <0>         0.1416
     44 H17         2.1909    0.0811    3.3652 H         1 <0>         0.0890
     45 H18         2.8158   -1.3953    2.5918 H         1 <0>         0.0892
     46 H19         4.4328    0.7791    1.7957 H         1 <0>         0.4037
     47 H20         6.5024    1.0226    2.8524 H         1 <0>         0.4064
     48 H21         7.8843    2.3264    4.5563 H         1 <0>         0.1251
     49 H22         9.2877    2.0713    6.5614 H         1 <0>         0.1287
     50 H23         7.6139   -1.8048    7.2389 H         1 <0>         0.1269
     51 H24         6.2037   -1.5449    5.2392 H         1 <0>         0.1374
     52 H25         8.5844   -1.9580    8.5443 H         1 <0>         0.0922
     53 H26        10.3408   -1.7724    8.7859 H         1 <0>         0.0733
     54 H27        11.2267    0.8394    8.4988 H         1 <0>         0.0733
     55 H28         9.9246    1.9931    8.1100 H         1 <0>         0.0918
     56 H29        11.9012    1.9245   10.5864 H         1 <0>         0.0675
     57 H30        10.7634    3.2424   10.2166 H         1 <0>         0.0744
     58 H31        10.6887    2.4183   11.7925 H         1 <0>         0.0697
     59 H32        10.3715   -2.6139   11.0807 H         1 <0>         0.0675
     60 H33         9.1816   -2.0425   12.2748 H         1 <0>         0.0697
     61 H34         8.6513   -3.0306   10.8926 H         1 <0>         0.0742
     62 H35         0.2112   -0.1803    2.0152 H         1 <0>         0.4232
@<TRIPOS>BOND
     1    1    2 1
     2    1   31 1
     3    1   32 1
     4    1   33 1
     5    2    3 1
     6    2    8 1
     7    2    4 1
     8    4    5 1
     9    4   34 1
    10    4   35 1
    11    5    6 1
    12    5   36 1
    13    5   37 1
    14    6    7 1
    15    6   38 1
    16    6   39 1
    17    7    8 1
    18    7   40 1
    19    7   41 1
    20    8    9 1
    21    8   62 1
    22    9   10 1
    23    9   42 1
    24    9   43 1
    25   10   11 1
    26   10   44 1
    27   10   45 1
    28   11   12 am
    29   11   46 1
    30   12   13 2
    31   12   14 am
    32   14   15 1
    33   14   47 1
    34   15   20 ar
    35   15   16 ar
    36   16   17 ar
    37   16   48 1
    38   17   18 ar
    39   17   49 1
    40   18   19 ar
    41   18   21 1
    42   19   20 ar
    43   19   50 1
    44   20   51 1
    45   21   28 1
    46   21   22 1
    47   22   23 1
    48   22   52 1
    49   22   53 1
    50   23   24 1
    51   23   25 1
    52   23   30 1
    53   25   26 1
    54   26   27 1
    55   26   28 1
    56   26   29 1
    57   28   54 1
    58   28   55 1
    59   29   56 1
    60   29   57 1
    61   29   58 1
    62   30   59 1
    63   30   60 1
    64   30   61 1
@<TRIPOS>MOLECULE
ZINC63386143
   54    57     0     0     0
SMALL
USER_CHARGES

@<TRIPOS>ATOM
      1 C1         -0.0187    1.5258    0.0104 C.3       1 <0>        -0.1533
      2 C2          0.0021   -0.0041    0.0020 C.3       1 <0>        -0.0397
      3 H1          0.5124   -0.3544   -0.8951 H         1 <0>         0.1064
      4 C3         -1.4132   -0.5244    0.0089 C.ar      1 <0>        -0.1633
      5 C4         -2.1127   -0.5493   -1.1881 C.ar      1 <0>        -0.0613
      6 C5         -3.4124   -1.0105   -1.2292 C.ar      1 <0>        -0.1587
      7 C6         -4.0280   -1.4526   -0.0665 C.ar      1 <0>         0.1471
      8 C7         -3.3324   -1.4319    1.1305 C.ar      1 <0>        -0.1598
      9 C8         -2.0214   -0.9706    1.1691 C.ar      1 <0>         0.1391
     10 O1         -1.3671   -0.9855    2.3625 O.3       1 <0>        -0.2977
     11 C9         -0.1787   -0.3528    2.4294 C.2       1 <0>         0.4927
     12 O2          0.1329    0.3083    3.3916 O.2       1 <0>        -0.4060
     13 C10         0.7465   -0.5098    1.2414 C.3       1 <0>        -0.1160
     14 H2          1.6494    0.0807    1.3972 H         1 <0>         0.1279
     15 C11         1.1138   -1.9841    1.0608 C.3       1 <0>        -0.1357
     16 C12         1.9509   -2.4398    2.2281 C.2       1 <0>         0.5057
     17 O3          2.2266   -1.6621    3.1170 O.2       1 <0>        -0.5044
     18 N1          2.3933   -3.7117    2.2844 N.am      1 <0>        -0.7420
     19 C13         3.2070   -4.1547    3.4191 C.3       1 <0>         0.1493
     20 H3          3.8488   -3.3371    3.7472 H         1 <0>         0.1019
     21 C14         2.2910   -4.5773    4.5695 C.3       1 <0>        -0.1692
     22 C15         4.0721   -5.3427    2.9933 C.3       1 <0>        -0.1014
     23 C16         5.0588   -4.8956    1.9456 C.2       1 <0>         0.0698
     24 C17         6.3383   -4.5061    2.1471 C.ar      1 <0>        -0.1705
     25 C18         7.1624   -4.3857    3.3557 C.ar      1 <0>        -0.0095
     26 C19         8.4399   -3.9575    3.2386 C.ar      1 <0>        -0.1523
     27 C20         8.9951   -3.6261    1.9950 C.ar      1 <0>         0.0572
     28 C21         8.3008   -3.7111    0.8405 C.ar      1 <0>        -0.2117
     29 C22         6.9482   -4.1506    0.8459 C.ar      1 <0>         0.3288
     30 N2          6.0796   -4.3139   -0.1223 N.pl3     1 <0>        -0.5886
     31 C23         4.8208   -4.7978    0.4553 C.3       1 <0>         0.0599
     32 O4         -5.3094   -1.9037   -0.1027 O.3       1 <0>        -0.4907
     33 H4          1.0039    1.9031    0.0027 H         1 <0>         0.0707
     34 H5         -0.5459    1.8868   -0.8726 H         1 <0>         0.0737
     35 H6         -0.5289    1.8773    0.9072 H         1 <0>         0.0578
     36 H7         -1.6370   -0.2049   -2.0944 H         1 <0>         0.1380
     37 H8         -3.9504   -1.0271   -2.1655 H         1 <0>         0.1394
     38 H9         -3.8096   -1.7747    2.0367 H         1 <0>         0.1449
     39 H10         0.2037   -2.5818    1.0111 H         1 <0>         0.1083
     40 H11         1.6802   -2.1069    0.1377 H         1 <0>         0.1128
     41 H12         2.1728   -4.3337    1.5735 H         1 <0>         0.3994
     42 H13         2.8965   -4.9069    5.4138 H         1 <0>         0.0765
     43 H14         1.6747   -3.7310    4.8728 H         1 <0>         0.0751
     44 H15         1.6493   -5.3950    4.2413 H         1 <0>         0.0674
     45 H16         4.6110   -5.7284    3.8588 H         1 <0>         0.1277
     46 H17         3.4360   -6.1266    2.5823 H         1 <0>         0.1188
     47 H18         6.7546   -4.6350    4.3242 H         1 <0>         0.1616
     48 H19         9.0481   -3.8681    4.1266 H         1 <0>         0.1587
     49 H20        10.0204   -3.2887    1.9590 H         1 <0>         0.1614
     50 H21         8.7749   -3.4435   -0.0923 H         1 <0>         0.1605
     51 H22         4.5712   -5.7783    0.0496 H         1 <0>         0.1743
     52 H23         4.0183   -4.0897    0.2487 H         1 <0>         0.1648
     53 H24        -5.3876   -2.8530   -0.2695 H         1 <0>         0.3987
     54 H25         6.2431   -4.1465   -1.0637 H         1 <0>         0.4554
@<TRIPOS>BOND
     1    1    2 1
     2    1   33 1
     3    1   34 1
     4    1   35 1
     5    2    3 1
     6    2   13 1
     7    2    4 1
     8    4    9 ar
     9    4    5 ar
    10    5    6 ar
    11    5   36 1
    12    6    7 ar
    13    6   37 1
    14    7    8 ar
    15    7   32 1
    16    8    9 ar
    17    8   38 1
    18    9   10 1
    19   10   11 1
    20   11   12 2
    21   11   13 1
    22   13   14 1
    23   13   15 1
    24   15   16 1
    25   15   39 1
    26   15   40 1
    27   16   17 2
    28   16   18 am
    29   18   19 1
    30   18   41 1
    31   19   20 1
    32   19   21 1
    33   19   22 1
    34   21   42 1
    35   21   43 1
    36   21   44 1
    37   22   23 1
    38   22   45 1
    39   22   46 1
    40   23   31 1
    41   23   24 2
    42   24   29 ar
    43   24   25 ar
    44   25   26 ar
    45   25   47 1
    46   26   27 ar
    47   26   48 1
    48   27   28 ar
    49   27   49 1
    50   28   29 ar
    51   28   50 1
    52   29   30 2
    53   30   31 1
    54   30   54 1
    55   31   51 1
    56   31   52 1
    57   32   53 1
@<TRIPOS>MOLECULE
ZINC66351294
   59    60     0     0     0
SMALL
USER_CHARGES

@<TRIPOS>ATOM
      1 C1         -0.0016    1.5300    0.0136 C.3       1 <0>        -0.1301
      2 C2          0.0293    0.0003    0.0120 C.3       1 <0>        -0.0867
      3 C3          0.7903   -0.4957    1.2432 C.3       1 <0>        -0.1414
      4 C4         -1.4021   -0.5388    0.0458 C.3       1 <0>        -0.1415
      5 C5          0.7203   -0.4869   -1.2355 C.2       1 <0>         0.5229
      6 O1          1.1461    0.3108   -2.0438 O.2       1 <0>        -0.5350
      7 N1          0.8651   -1.8091   -1.4530 N.am      1 <0>        -0.7318
      8 C6          1.5368   -2.2827   -2.6657 C.3       1 <0>         0.1170
      9 C7          1.5677   -3.8124   -2.6673 C.3       1 <0>        -0.1166
     10 C8          2.2692   -4.3071   -3.9338 C.3       1 <0>        -0.1380
     11 C9          2.2996   -5.8138   -3.9353 C.2       1 <0>         0.5173
     12 O2          1.8086   -6.4312   -3.0140 O.2       1 <0>        -0.5216
     13 N2          2.8725   -6.4752   -4.9604 N.am      1 <0>        -0.6759
     14 C10         2.9847   -7.8715   -4.9181 C.ar      1 <0>         0.1102
     15 C11         4.0976   -8.4954   -5.4660 C.ar      1 <0>        -0.0961
     16 C12         4.2085   -9.8709   -5.4240 C.ar      1 <0>        -0.1656
     17 C13         3.2069  -10.6306   -4.8336 C.ar      1 <0>         0.1824
     18 C14         2.0938  -10.0064   -4.2856 C.ar      1 <0>        -0.1663
     19 C15         1.9857   -8.6305   -4.3231 C.ar      1 <0>        -0.0719
     20 N3          3.3188  -12.0244   -4.7914 N.pl3     1 <0>        -0.6454
     21 C16         4.5421  -12.6993   -5.2523 C.3       1 <0>         0.1003
     22 C17         4.9968  -13.6772   -4.1639 C.3       1 <0>        -0.0233
     23 N4          3.8922  -14.5856   -3.8309 N.4       1 <0>        -0.3837
     24 C18         2.7814  -13.8273   -3.2416 C.3       1 <0>        -0.0232
     25 C19         2.2191  -12.8564   -4.2791 C.3       1 <0>         0.0986
     26 C20         4.3610  -15.5915   -2.8684 C.3       1 <0>        -0.0471
     27 H1          1.0182    1.9140   -0.0105 H         1 <0>         0.0628
     28 H2         -0.5437    1.8833   -0.8636 H         1 <0>         0.0629
     29 H3         -0.5013    1.8824    0.9159 H         1 <0>         0.0640
     30 H4          0.2905   -0.1433    2.1456 H         1 <0>         0.0712
     31 H5          0.8123   -1.5854    1.2421 H         1 <0>         0.0583
     32 H6          1.8101   -0.1116    1.2192 H         1 <0>         0.0617
     33 H7         -1.9442   -0.1854   -0.8314 H         1 <0>         0.0618
     34 H8         -1.3801   -1.6286    0.0447 H         1 <0>         0.0584
     35 H9         -1.9019   -0.1864    0.9481 H         1 <0>         0.0712
     36 H10         0.5245   -2.4471   -0.8065 H         1 <0>         0.4012
     37 H11         0.9947   -1.9294   -3.5429 H         1 <0>         0.0696
     38 H12         2.5566   -1.8987   -2.6898 H         1 <0>         0.0693
     39 H13         2.1098   -4.1658   -1.7901 H         1 <0>         0.0786
     40 H14         0.5479   -4.1965   -2.6432 H         1 <0>         0.0790
     41 H15         1.7271   -3.9537   -4.8109 H         1 <0>         0.1040
     42 H16         3.2890   -3.9230   -3.9579 H         1 <0>         0.1039
     43 H17         3.2072   -5.9847   -5.7275 H         1 <0>         0.4142
     44 H18         4.8763   -7.9047   -5.9254 H         1 <0>         0.1320
     45 H19         5.0740  -10.3562   -5.8505 H         1 <0>         0.1274
     46 H20         1.3148  -10.5969   -3.8265 H         1 <0>         0.1262
     47 H21         1.1223   -8.1447   -3.8931 H         1 <0>         0.1444
     48 H22         4.3344  -13.2458   -6.1722 H         1 <0>         0.0875
     49 H23         5.3232  -11.9603   -5.4303 H         1 <0>         0.1258
     50 H24         5.8463  -14.2557   -4.5269 H         1 <0>         0.1409
     51 H25         5.2900  -13.1200   -3.2741 H         1 <0>         0.1322
     52 H26         1.9985  -14.5164   -2.9250 H         1 <0>         0.1414
     53 H27         3.1417  -13.2656   -2.3797 H         1 <0>         0.1323
     54 H28         1.4653  -12.2213   -3.8140 H         1 <0>         0.1268
     55 H29         1.7729  -13.4191   -5.0991 H         1 <0>         0.0874
     56 H30         4.7086  -15.0938   -1.9630 H         1 <0>         0.1216
     57 H31         3.5420  -16.2665   -2.6203 H         1 <0>         0.1252
     58 H32         5.1804  -16.1605   -3.3076 H         1 <0>         0.1251
     59 H33         3.5745  -15.0483   -4.6693 H         1 <0>         0.4246
@<TRIPOS>BOND
     1    1    2 1
     2    1   27 1
     3    1   28 1
     4    1   29 1
     5    2    3 1
     6    2    4 1
     7    2    5 1
     8    3   30 1
     9    3   31 1
    10    3   32 1
    11    4   33 1
    12    4   34 1
    13    4   35 1
    14    5    6 2
    15    5    7 am
    16    7    8 1
    17    7   36 1
    18    8    9 1
    19    8   37 1
    20    8   38 1
    21    9   10 1
    22    9   39 1
    23    9   40 1
    24   10   11 1
    25   10   41 1
    26   10   42 1
    27   11   12 2
    28   11   13 am
    29   13   14 1
    30   13   43 1
    31   14   19 ar
    32   14   15 ar
    33   15   16 ar
    34   15   44 1
    35   16   17 ar
    36   16   45 1
    37   17   18 ar
    38   17   20 1
    39   18   19 ar
    40   18   46 1
    41   19   47 1
    42   20   25 1
    43   20   21 1
    44   21   22 1
    45   21   48 1
    46   21   49 1
    47   22   23 1
    48   22   50 1
    49   22   51 1
    50   23   24 1
    51   23   26 1
    52   23   59 1
    53   24   25 1
    54   24   52 1
    55   24   53 1
    56   25   54 1
    57   25   55 1
    58   26   56 1
    59   26   57 1
    60   26   58 1
@<TRIPOS>MOLECULE
ZINC19363656
   40    42     0     0     0
SMALL
USER_CHARGES
1-[bis(4-fluorophenyl)methyl]piperazine
@<TRIPOS>ATOM
      1 C1          3.7073    3.1332   -0.7730 C.ar      1 <0>        -0.0661
      2 C2          5.0509    3.4541   -0.8137 C.ar      1 <0>        -0.1557
      3 C3          5.5404    4.4833   -0.0274 C.ar      1 <0>         0.1130
      4 C4          4.6820    5.1933    0.7949 C.ar      1 <0>        -0.1505
      5 C5          3.3379    4.8741    0.8299 C.ar      1 <0>        -0.0781
      6 C6          2.8503    3.8463    0.0444 C.ar      1 <0>        -0.1085
      7 C7          1.3844    3.4988    0.0839 C.3       1 <0>         0.1834
      8 C8          0.7096    4.0262   -1.1560 C.ar      1 <0>        -0.1084
      9 C9          0.8831    3.3789   -2.3652 C.ar      1 <0>        -0.0647
     10 C10         0.2609    3.8589   -3.5020 C.ar      1 <0>        -0.1562
     11 C11        -0.5281    4.9945   -3.4317 C.ar      1 <0>         0.1132
     12 C12        -0.6970    5.6449   -2.2211 C.ar      1 <0>        -0.1509
     13 C13        -0.0780    5.1601   -1.0846 C.ar      1 <0>        -0.0780
     14 F1         -1.1331    5.4673   -4.5433 F         1 <0>        -0.1324
     15 N1          1.2286    2.0393    0.1431 N.3       1 <0>        -0.5345
     16 C14         1.9304    1.4815    1.3075 C.3       1 <0>         0.0193
     17 C15         1.8111   -0.0443    1.2890 C.3       1 <0>         0.0038
     18 N2          0.3910   -0.4221    1.3030 N.4       1 <0>        -0.5384
     19 C16        -0.3109    0.1357    0.1385 C.3       1 <0>         0.0019
     20 C17        -0.1915    1.6614    0.1570 C.3       1 <0>         0.0200
     21 F2          6.8546    4.7948   -0.0628 F         1 <0>        -0.1324
     22 H1          3.3260    2.3278   -1.3832 H         1 <0>         0.1376
     23 H2          5.7196    2.8996   -1.4554 H         1 <0>         0.1395
     24 H3          5.0627    5.9965    1.4084 H         1 <0>         0.1410
     25 H4          2.6681    5.4280    1.4710 H         1 <0>         0.1329
     26 H5          0.9169    3.9290    0.9819 H         1 <0>         0.0714
     27 H6          1.5019    2.4955   -2.4207 H         1 <0>         0.1373
     28 H7          0.3933    3.3507   -4.4458 H         1 <0>         0.1393
     29 H8         -1.3125    6.5306   -2.1649 H         1 <0>         0.1409
     30 H9         -0.2099    5.6671   -0.1401 H         1 <0>         0.1328
     31 H10         2.9917    1.7678    1.2677 H         1 <0>         0.1255
     32 H11         1.4791    1.8744    2.2305 H         1 <0>         0.0625
     33 H12         2.2874   -0.4383    0.3791 H         1 <0>         0.1362
     34 H13         2.3115   -0.4620    2.1751 H         1 <0>         0.1376
     35 H14         0.3030   -1.5183    1.2775 H         1 <0>         0.4569
     36 H15         0.1404   -0.2573   -0.7845 H         1 <0>         0.1360
     37 H16        -1.3723   -0.1505    0.1783 H         1 <0>         0.1377
     38 H17        -0.6671    2.0564    1.0668 H         1 <0>         0.0625
     39 H18        -0.6910    2.0800   -0.7291 H         1 <0>         0.1251
     40 H19        -0.0818   -0.0375    2.2187 H         1 <0>         0.4475
@<TRIPOS>BOND
     1    1    6 ar
     2    1    2 ar
     3    1   22 1
     4    2    3 ar
     5    2   23 1
     6    3    4 ar
     7    3   21 1
     8    4    5 ar
     9    4   24 1
    10    5    6 ar
    11    5   25 1
    12    6    7 1
    13    7    8 1
    14    7   15 1
    15    7   26 1
    16    8   13 ar
    17    8    9 ar
    18    9   10 ar
    19    9   27 1
    20   10   11 ar
    21   10   28 1
    22   11   12 ar
    23   11   14 1
    24   12   13 ar
    25   12   29 1
    26   13   30 1
    27   15   20 1
    28   15   16 1
    29   16   17 1
    30   16   31 1
    31   16   32 1
    32   17   18 1
    33   17   33 1
    34   17   34 1
    35   18   19 1
    36   18   35 1
    37   18   40 1
    38   19   20 1
    39   19   36 1
    40   19   37 1
    41   20   38 1
    42   20   39 1
@<TRIPOS>MOLECULE
ZINC37252803
   34    35     0     0     0
SMALL
USER_CHARGES

@<TRIPOS>ATOM
      1 C1         -0.0187    1.5258    0.0104 C.3       1 <0>        -0.1545
      2 C2          0.0021   -0.0041    0.0020 C.3       1 <0>        -0.0836
      3 H1         -1.0205   -0.3814    0.0098 H         1 <0>         0.0821
      4 C3          0.7182   -0.4975   -1.2568 C.3       1 <0>        -0.1281
      5 C4          0.7390   -2.0273   -1.2652 C.3       1 <0>        -0.1174
      6 C5          1.4790   -2.5342   -0.0257 C.3       1 <0>        -0.1434
      7 C6          0.7628   -2.0407    1.2331 C.3       1 <0>         0.0253
      8 H2         -0.2598   -2.4180    1.2409 H         1 <0>         0.1430
      9 C7          0.7421   -0.5109    1.2415 C.3       1 <0>        -0.1381
     10 N1          1.4733   -2.5274    2.4232 N.4       1 <0>        -0.5101
     11 C8          1.3901   -3.9930    2.4780 C.3       1 <0>         0.0898
     12 C9          2.1190   -4.4922    3.6989 C.2       1 <0>        -0.0936
     13 C10         1.5769   -4.6838    4.9149 C.2       1 <0>        -0.1332
     14 C11         2.6116   -5.1558    5.7551 C.2       1 <0>        -0.1628
     15 C12         3.7250   -5.2245    5.0015 C.2       1 <0>         0.0128
     16 O1          3.4189   -4.8268    3.7557 O.3       1 <0>        -0.1523
     17 Br1         5.4287   -5.7916    5.5944 Br        1 <0>         0.0891
     18 H3          1.0039    1.9031    0.0027 H         1 <0>         0.0603
     19 H4         -0.5459    1.8868   -0.8726 H         1 <0>         0.0680
     20 H5         -0.5289    1.8773    0.9072 H         1 <0>         0.0610
     21 H6          0.1910   -0.1364   -2.1398 H         1 <0>         0.0805
     22 H7          1.7408   -0.1202   -1.2645 H         1 <0>         0.0712
     23 H8         -0.2836   -2.4046   -1.2575 H         1 <0>         0.0756
     24 H9          1.2492   -2.3788   -2.1620 H         1 <0>         0.0862
     25 H10         1.4937   -3.6240   -0.0317 H         1 <0>         0.0875
     26 H11         2.5015   -2.1569   -0.0334 H         1 <0>         0.0886
     27 H12         1.7647   -0.1336    1.2338 H         1 <0>         0.0885
     28 H13         0.2319   -0.1594    2.1383 H         1 <0>         0.0891
     29 H14         2.4414   -2.2470    2.3751 H         1 <0>         0.4291
     30 H15         0.3443   -4.2958    2.5301 H         1 <0>         0.1621
     31 H16         1.8470   -4.4165    1.5836 H         1 <0>         0.1500
     32 H17         0.5487   -4.5100    5.1957 H         1 <0>         0.1720
     33 H18         2.5253   -5.4116    6.8008 H         1 <0>         0.1753
     34 H19         1.0504   -2.1353    3.2512 H         1 <0>         0.4302
@<TRIPOS>BOND
     1    1    2 1
     2    1   18 1
     3    1   19 1
     4    1   20 1
     5    2    3 1
     6    2    9 1
     7    2    4 1
     8    4    5 1
     9    4   21 1
    10    4   22 1
    11    5    6 1
    12    5   23 1
    13    5   24 1
    14    6    7 1
    15    6   25 1
    16    6   26 1
    17    7    8 1
    18    7    9 1
    19    7   10 1
    20    9   27 1
    21    9   28 1
    22   10   11 1
    23   10   29 1
    24   10   34 1
    25   11   12 1
    26   11   30 1
    27   11   31 1
    28   12   16 1
    29   12   13 2
    30   13   14 1
    31   13   32 1
    32   14   15 2
    33   14   33 1
    34   15   16 1
    35   15   17 1
@<TRIPOS>MOLECULE
ZINC40517624
   39    40     0     0     0
SMALL
USER_CHARGES

@<TRIPOS>ATOM
      1 C1          1.9064    2.1606   -3.0360 C.3       1 <0>        -0.1004
      2 C2          0.4452    2.2781   -2.6864 C.2       1 <0>         0.1511
      3 C3         -0.3314    1.1796   -2.5034 C.2       1 <0>        -0.3266
      4 S1         -1.9000    1.9448   -2.1259 S.3       1 <0>         0.1141
      5 C4         -1.4073    3.5501   -2.2397 C.2       1 <0>         0.1214
      6 N1         -0.1360    3.4519   -2.5390 N.2       1 <0>        -0.5201
      7 C5         -2.2284    4.7979   -2.0399 C.3       1 <0>        -0.0837
      8 C6          0.0301   -0.2806   -2.5937 C.3       1 <0>         0.1385
      9 H1          0.9909   -0.3865   -3.0974 H         1 <0>         0.1588
     10 C7          0.1250   -0.8706   -1.1852 C.3       1 <0>        -0.1787
     11 N2         -1.0034   -0.9948   -3.3551 N.4       1 <0>        -0.5073
     12 C8         -1.0032   -0.5201   -4.7453 C.3       1 <0>         0.0803
     13 H2         -1.1012    0.5654   -4.7586 H         1 <0>         0.1457
     14 C9          0.3093   -0.9219   -5.4212 C.3       1 <0>        -0.1763
     15 C10        -2.1601   -1.1381   -5.4873 C.ar      1 <0>        -0.1717
     16 C11        -2.7624   -2.2824   -4.9992 C.ar      1 <0>        -0.1067
     17 C12        -3.8236   -2.8494   -5.6796 C.ar      1 <0>        -0.1077
     18 C13        -4.2839   -2.2729   -6.8490 C.ar      1 <0>        -0.0652
     19 C14        -3.6836   -1.1286   -7.3385 C.ar      1 <0>        -0.1353
     20 C15        -2.6238   -0.5566   -6.6550 C.ar      1 <0>         0.1300
     21 F1         -2.0391    0.5648   -7.1302 F         1 <0>        -0.1263
     22 H3          2.4972    2.1253   -2.1207 H         1 <0>         0.0922
     23 H4          2.0705    1.2486   -3.6098 H         1 <0>         0.0761
     24 H5          2.2082    3.0231   -3.6303 H         1 <0>         0.0908
     25 H6         -2.1871    5.0962   -0.9923 H         1 <0>         0.1055
     26 H7         -1.8290    5.5991   -2.6618 H         1 <0>         0.1065
     27 H8         -3.2629    4.6010   -2.3211 H         1 <0>         0.0962
     28 H9          0.2996   -1.9444   -1.2521 H         1 <0>         0.0910
     29 H10         0.9500   -0.4010   -0.6494 H         1 <0>         0.1126
     30 H11        -0.8069   -0.6866   -0.6507 H         1 <0>         0.0840
     31 H12        -0.8100   -1.9849   -3.3378 H         1 <0>         0.4307
     32 H13         0.2703   -0.6558   -6.4775 H         1 <0>         0.1088
     33 H14         1.1384   -0.3984   -4.9451 H         1 <0>         0.0871
     34 H15         0.4543   -1.9977   -5.3227 H         1 <0>         0.0880
     35 H16        -2.4035   -2.7338   -4.0861 H         1 <0>         0.1258
     36 H17        -4.2934   -3.7438   -5.2976 H         1 <0>         0.1448
     37 H18        -5.1127   -2.7172   -7.3801 H         1 <0>         0.1483
     38 H19        -4.0431   -0.6786   -8.2521 H         1 <0>         0.1514
     39 H20        -1.9068   -0.8212   -2.9406 H         1 <0>         0.4260
@<TRIPOS>BOND
     1    1    2 1
     2    1   22 1
     3    1   23 1
     4    1   24 1
     5    2    6 1
     6    2    3 2
     7    3    4 1
     8    3    8 1
     9    4    5 1
    10    5    6 2
    11    5    7 1
    12    7   25 1
    13    7   26 1
    14    7   27 1
    15    8    9 1
    16    8   10 1
    17    8   11 1
    18   10   28 1
    19   10   29 1
    20   10   30 1
    21   11   12 1
    22   11   31 1
    23   11   39 1
    24   12   13 1
    25   12   14 1
    26   12   15 1
    27   14   32 1
    28   14   33 1
    29   14   34 1
    30   15   20 ar
    31   15   16 ar
    32   16   17 ar
    33   16   35 1
    34   17   18 ar
    35   17   36 1
    36   18   19 ar
    37   18   37 1
    38   19   20 ar
    39   19   38 1
    40   20   21 1
@<TRIPOS>MOLECULE
ZINC49510479
   38    39     0     0     0
SMALL
USER_CHARGES

@<TRIPOS>ATOM
      1 C1         -1.4318    1.6534   -1.0995 C.3       1 <0>        -0.1657
      2 C2         -1.6131    0.1429   -1.2623 C.3       1 <0>        -0.1360
      3 C3         -2.9818   -0.2682   -0.7160 C.3       1 <0>         0.1068
      4 H1         -3.7541    0.3298   -1.1997 H         1 <0>         0.1369
      5 C4         -3.2267   -1.7690   -1.0316 C.3       1 <0>        -0.1042
      6 S1         -4.1314   -2.2231    0.5097 S.3       1 <0>         0.0204
      7 C5         -3.5679   -0.8726    1.5328 C.cat     1 <0>         0.4847
      8 N1         -3.0166   -0.0244    0.7145 N.pl3     1 <0>        -0.6387
      9 N2         -3.6898   -0.7550    2.8980 N.pl3     1 <0>        -0.6223
     10 C6         -4.3426   -1.8158    3.6692 C.3       1 <0>         0.1962
     11 H2         -4.8612   -2.4923    2.9899 H         1 <0>         0.1142
     12 C7         -3.2887   -2.5947    4.4588 C.3       1 <0>        -0.1667
     13 C8         -5.3353   -1.2043    4.6241 C.2       1 <0>        -0.1600
     14 C9         -5.1748    0.0957    5.0655 C.2       1 <0>        -0.1727
     15 C10        -6.0857    0.6155    5.9242 C.2       1 <0>        -0.1245
     16 S2         -7.2166   -0.7499    6.1340 S.3       1 <0>         0.0903
     17 C11        -6.4018   -1.9191    5.0586 C.2       1 <0>        -0.1231
     18 C12        -6.7966   -3.3341    4.7224 C.3       1 <0>        -0.0828
     19 C13        -6.1316    1.9893    6.5420 C.3       1 <0>        -0.0799
     20 H3         -0.4567    1.9463   -1.4887 H         1 <0>         0.0801
     21 H4         -2.2145    2.1748   -1.6505 H         1 <0>         0.0703
     22 H5         -1.4950    1.9152   -0.0433 H         1 <0>         0.0498
     23 H6         -1.5499   -0.1188   -2.3185 H         1 <0>         0.1109
     24 H7         -0.8304   -0.3784   -0.7113 H         1 <0>         0.0856
     25 H8         -3.8512   -1.8964   -1.9159 H         1 <0>         0.1637
     26 H9         -2.2896   -2.3179   -1.1235 H         1 <0>         0.1405
     27 H10        -3.3434    0.0302    3.3499 H         1 <0>         0.4278
     28 H11        -2.5707   -3.0370    3.7681 H         1 <0>         0.0735
     29 H12        -2.7701   -1.9182    5.1381 H         1 <0>         0.0749
     30 H13        -3.7744   -3.3840    5.0326 H         1 <0>         0.0954
     31 H14        -4.3360    0.6883    4.7314 H         1 <0>         0.1222
     32 H15        -6.3380   -4.0185    5.4360 H         1 <0>         0.0901
     33 H16        -7.8812   -3.4303    4.7723 H         1 <0>         0.0850
     34 H17        -6.4562   -3.5768    3.7158 H         1 <0>         0.0809
     35 H18        -6.6987    2.6594    5.8959 H         1 <0>         0.0848
     36 H19        -6.6126    1.9327    7.5185 H         1 <0>         0.0818
     37 H20        -5.1167    2.3695    6.6583 H         1 <0>         0.0843
     38 H21        -2.6222    0.7880    1.0683 H         1 <0>         0.4259
@<TRIPOS>BOND
     1    1    2 1
     2    1   20 1
     3    1   21 1
     4    1   22 1
     5    2    3 1
     6    2   23 1
     7    2   24 1
     8    3    4 1
     9    3    8 1
    10    3    5 1
    11    5    6 1
    12    5   25 1
    13    5   26 1
    14    6    7 1
    15    7    8 2
    16    7    9 1
    17    8   38 1
    18    9   10 1
    19    9   27 1
    20   10   11 1
    21   10   12 1
    22   10   13 1
    23   12   28 1
    24   12   29 1
    25   12   30 1
    26   13   17 2
    27   13   14 1
    28   14   15 2
    29   14   31 1
    30   15   16 1
    31   15   19 1
    32   16   17 1
    33   17   18 1
    34   18   32 1
    35   18   33 1
    36   18   34 1
    37   19   35 1
    38   19   36 1
    39   19   37 1
@<TRIPOS>MOLECULE
ZINC53738341
   39    41     0     0     0
SMALL
USER_CHARGES

@<TRIPOS>ATOM
      1 C1          0.0196    1.3526    0.2179 C.ar      1 <0>        -0.0870
      2 C2          1.2092    2.0555    0.1841 C.ar      1 <0>        -0.0892
      3 C3          2.3931    1.3979   -0.0987 C.ar      1 <0>        -0.0281
      4 C4          2.3855    0.0370   -0.3476 C.ar      1 <0>        -0.0917
      5 C5          1.1952   -0.6648   -0.3136 C.ar      1 <0>        -0.1479
      6 C6          0.0126   -0.0072   -0.0309 C.ar      1 <0>        -0.0987
      7 C7         -1.2848   -0.7730    0.0065 C.3       1 <0>        -0.0331
      8 C8         -2.0041   -0.4981    1.3306 C.3       1 <0>        -0.1647
      9 C9         -3.3559   -1.2167    1.3268 C.3       1 <0>         0.0529
     10 O1         -4.1263   -0.7737    0.2077 O.3       1 <0>        -0.3637
     11 C10        -3.5249   -1.0469   -1.0595 C.3       1 <0>         0.0510
     12 C11        -2.1800   -0.3215   -1.1516 C.3       1 <0>        -0.1415
     13 C12        -0.9989   -2.2706   -0.1215 C.3       1 <0>        -0.0090
     14 N1         -0.2649   -2.7321    1.0644 N.4       1 <0>        -0.4853
     15 C13         0.1216   -4.1379    0.8847 C.3       1 <0>        -0.0906
     16 C14        -0.4748   -5.1636    1.8506 C.3       1 <0>        -0.1523
     17 C15         1.0000   -4.7727    1.9647 C.3       1 <0>        -0.1530
     18 Cl1         3.8876    2.2802   -0.1419 Cl        1 <0>        -0.0429
     19 H1         -0.9041    1.8651    0.4431 H         1 <0>         0.1411
     20 H2          1.2145    3.1179    0.3781 H         1 <0>         0.1456
     21 H3          3.3093   -0.4768   -0.5688 H         1 <0>         0.1435
     22 H4          1.1891   -1.7271   -0.5082 H         1 <0>         0.1236
     23 H5         -1.3978   -0.8669    2.1579 H         1 <0>         0.0706
     24 H6         -2.1621    0.5745    1.4434 H         1 <0>         0.1076
     25 H7         -3.1955   -2.2925    1.2547 H         1 <0>         0.0456
     26 H8         -3.8908   -0.9898    2.2490 H         1 <0>         0.1117
     27 H9         -3.3667   -2.1204   -1.1629 H         1 <0>         0.0538
     28 H10        -4.1816   -0.6977   -1.8563 H         1 <0>         0.1126
     29 H11        -2.3415    0.7547   -1.0889 H         1 <0>         0.0984
     30 H12        -1.6994   -0.5640   -2.0994 H         1 <0>         0.0920
     31 H13        -1.9401   -2.8147   -0.2007 H         1 <0>         0.1419
     32 H14        -0.3987   -2.4511   -1.0133 H         1 <0>         0.1421
     33 H15         0.5630   -2.1688    1.1878 H         1 <0>         0.4266
     34 H16         0.2851   -4.4524   -0.1461 H         1 <0>         0.1796
     35 H17        -1.1540   -4.7953    2.6195 H         1 <0>         0.1213
     36 H18        -0.7040   -6.1532    1.4554 H         1 <0>         0.1362
     37 H19         1.7410   -5.5051    1.6445 H         1 <0>         0.1367
     38 H20         1.2910   -4.1472    2.8086 H         1 <0>         0.1214
     39 H21        -0.8542   -2.6468    1.8790 H         1 <0>         0.4232
@<TRIPOS>BOND
     1    1    6 ar
     2    1    2 ar
     3    1   19 1
     4    2    3 ar
     5    2   20 1
     6    3    4 ar
     7    3   18 1
     8    4    5 ar
     9    4   21 1
    10    5    6 ar
    11    5   22 1
    12    6    7 1
    13    7   12 1
    14    7    8 1
    15    7   13 1
    16    8    9 1
    17    8   23 1
    18    8   24 1
    19    9   10 1
    20    9   25 1
    21    9   26 1
    22   10   11 1
    23   11   12 1
    24   11   27 1
    25   11   28 1
    26   12   29 1
    27   12   30 1
    28   13   14 1
    29   13   31 1
    30   13   32 1
    31   14   15 1
    32   14   33 1
    33   14   39 1
    34   15   17 1
    35   15   16 1
    36   15   34 1
    37   16   17 1
    38   16   35 1
    39   16   36 1
    40   17   37 1
    41   17   38 1
@<TRIPOS>MOLECULE
ZINC00188451
   38    40     0     0     0
SMALL
USER_CHARGES
2-ethylsulfanyl-4-(1-naphthyl)-6-oxo-4,5-dihydro-1H-pyridine-3-carbonitrile
@<TRIPOS>ATOM
      1 C1         -6.6253    0.0221   -3.5978 C.3       1 <0>        -0.1400
      2 C2         -5.7970    0.5158   -2.4099 C.3       1 <0>        -0.1373
      3 S1         -4.9831    2.0722   -2.8472 S.3       1 <0>        -0.0405
      4 C3         -4.1250    2.4016   -1.3439 C.2       1 <0>         0.1712
      5 C4         -3.3568    3.5210   -1.2356 C.2       1 <0>        -0.1050
      6 C5         -2.6196    3.8110    0.0462 C.3       1 <0>         0.0167
      7 H1         -2.4607    4.8854    0.1389 H         1 <0>         0.1152
      8 C6         -3.4467    3.3134    1.2330 C.3       1 <0>        -0.1325
      9 C7         -3.9211    1.9096    0.9637 C.2       1 <0>         0.5297
     10 O1         -4.0206    1.1217    1.8800 O.2       1 <0>        -0.4978
     11 N1         -4.2357    1.5236   -0.2864 N.am      1 <0>        -0.6614
     12 C8         -1.2880    3.1056    0.0307 C.ar      1 <0>        -0.0727
     13 C9         -1.2260    1.7663   -0.2046 C.ar      1 <0>        -0.1100
     14 C10        -0.0044    1.0961   -0.2179 C.ar      1 <0>        -0.1132
     15 C11         1.1633    1.7632   -0.0071 C.ar      1 <0>        -0.0997
     16 C12         1.1396    3.1473    0.2332 C.ar      1 <0>        -0.0500
     17 C13        -0.1035    3.8281    0.2521 C.ar      1 <0>        -0.0377
     18 C14        -0.1272    5.2126    0.4929 C.ar      1 <0>        -0.1136
     19 C15         1.0402    5.8793    0.7042 C.ar      1 <0>        -0.1099
     20 C16         2.2625    5.2098    0.6861 C.ar      1 <0>        -0.1158
     21 C17         2.3243    3.8700    0.4557 C.ar      1 <0>        -0.1036
     22 C18        -3.2505    4.4247   -2.3413 C.1       1 <0>         0.2573
     23 N2         -3.1662    5.1417   -3.2184 N.1       1 <0>        -0.4009
     24 H2         -7.1155   -0.9152   -3.3345 H         1 <0>         0.0823
     25 H3         -7.3791    0.7679   -3.8502 H         1 <0>         0.0706
     26 H4         -5.9715   -0.1382   -4.4551 H         1 <0>         0.0707
     27 H5         -5.0433   -0.2300   -2.1576 H         1 <0>         0.0953
     28 H6         -6.4509    0.6761   -1.5526 H         1 <0>         0.0982
     29 H7         -2.8320    3.3225    2.1331 H         1 <0>         0.1226
     30 H8         -4.3076    3.9667    1.3749 H         1 <0>         0.1196
     31 H9         -4.5441    0.6178   -0.4453 H         1 <0>         0.4147
     32 H10        -2.1375    1.2141   -0.3793 H         1 <0>         0.1188
     33 H11         0.0166    0.0323   -0.4027 H         1 <0>         0.1239
     34 H12         2.1031    1.2313   -0.0247 H         1 <0>         0.1288
     35 H13        -1.0670    5.7445    0.5105 H         1 <0>         0.1290
     36 H14         1.0191    6.9432    0.8890 H         1 <0>         0.1247
     37 H15         3.1743    5.7626    0.8575 H         1 <0>         0.1243
     38 H16         3.2787    3.3646    0.4446 H         1 <0>         0.1281
@<TRIPOS>BOND
     1    1    2 1
     2    1   24 1
     3    1   25 1
     4    1   26 1
     5    2    3 1
     6    2   27 1
     7    2   28 1
     8    3    4 1
     9    4   11 1
    10    4    5 2
    11    5    6 1
    12    5   22 1
    13    6    7 1
    14    6    8 1
    15    6   12 1
    16    8    9 1
    17    8   29 1
    18    8   30 1
    19    9   10 2
    20    9   11 am
    21   11   31 1
    22   12   17 ar
    23   12   13 ar
    24   13   14 ar
    25   13   32 1
    26   14   15 ar
    27   14   33 1
    28   15   16 ar
    29   15   34 1
    30   16   21 ar
    31   16   17 ar
    32   17   18 ar
    33   18   19 ar
    34   18   35 1
    35   19   20 ar
    36   19   36 1
    37   20   21 ar
    38   20   37 1
    39   21   38 1
    40   22   23 3
@<TRIPOS>MOLECULE
ZINC35698042
   31    33     0     0     0
SMALL
USER_CHARGES

@<TRIPOS>ATOM
      1 C1         -0.0167    1.3780    0.0096 C.ar      1 <0>        -0.1312
      2 C2          1.1706    2.0866    0.0021 C.ar      1 <0>        -0.0886
      3 C3          2.3773    1.4137   -0.0131 C.ar      1 <0>        -0.1558
      4 C4          2.3974    0.0291   -0.0207 C.ar      1 <0>         0.1114
      5 C5          1.2080   -0.6793   -0.0132 C.ar      1 <0>        -0.1200
      6 C6          0.0021   -0.0041    0.0020 C.ar      1 <0>        -0.0833
      7 C7          1.2281   -2.1862   -0.0220 C.3       1 <0>        -0.0877
      8 C8          1.3746   -2.7026    1.4107 C.3       1 <0>         0.0970
      9 N1          1.3942   -4.1675    1.4022 N.am      1 <0>        -0.5030
     10 C9          0.2334   -4.8386    1.5065 C.2       1 <0>         0.5645
     11 O1         -0.8196   -4.2358    1.6067 O.2       1 <0>        -0.4799
     12 C10         0.2509   -6.3175    1.4976 C.2       1 <0>        -0.2408
     13 C11        -0.8614   -7.2508    1.5956 C.2       1 <0>        -0.0700
     14 C12        -0.5535   -8.5570    1.5603 C.2       1 <0>        -0.2026
     15 S1          1.2186   -8.5563    1.3962 S.3       1 <0>         0.2672
     16 C13         1.5071   -6.9116    1.3781 C.2       1 <0>         0.0130
     17 N2          2.6422   -6.1494    1.2774 N.pl3     1 <0>        -0.5421
     18 C14         2.5702   -4.8052    1.2848 C.2       1 <0>         0.5250
     19 S2          4.0099   -3.8888    1.1489 S.2       1 <0>        -0.5074
     20 F1          3.5766   -0.6299   -0.0360 F         1 <0>        -0.1237
     21 H1         -0.9594    1.9048    0.0260 H         1 <0>         0.1306
     22 H2          1.1547    3.1665    0.0077 H         1 <0>         0.1330
     23 H3          3.3046    1.9675   -0.0193 H         1 <0>         0.1367
     24 H4         -0.9259   -0.5565    0.0083 H         1 <0>         0.1326
     25 H5          0.2975   -2.5595   -0.4494 H         1 <0>         0.0808
     26 H6          2.0689   -2.5348   -0.6216 H         1 <0>         0.0905
     27 H7          2.3053   -2.3294    1.8381 H         1 <0>         0.1285
     28 H8          0.5338   -2.3540    2.0104 H         1 <0>         0.1081
     29 H9         -1.8817   -6.9102    1.6922 H         1 <0>         0.1597
     30 H10        -1.2206   -9.4044    1.6179 H         1 <0>         0.2067
     31 H11         3.5058   -6.5833    1.1955 H         1 <0>         0.4508
@<TRIPOS>BOND
     1    1    6 ar
     2    1    2 ar
     3    1   21 1
     4    2    3 ar
     5    2   22 1
     6    3    4 ar
     7    3   23 1
     8    4    5 ar
     9    4   20 1
    10    5    6 ar
    11    5    7 1
    12    6   24 1
    13    7    8 1
    14    7   25 1
    15    7   26 1
    16    8    9 1
    17    8   27 1
    18    8   28 1
    19    9   18 1
    20    9   10 am
    21   10   11 2
    22   10   12 1
    23   12   16 2
    24   12   13 1
    25   13   14 2
    26   13   29 1
    27   14   15 1
    28   14   30 1
    29   15   16 1
    30   16   17 1
    31   17   18 1
    32   17   31 1
    33   18   19 2
@<TRIPOS>MOLECULE
ZINC38097862
   29    30     0     0     0
SMALL
USER_CHARGES

@<TRIPOS>ATOM
      1 C1         -0.0184    1.5028    0.0103 C.3       1 <0>        -0.0775
      2 C2          0.0021   -0.0041    0.0020 C.2       1 <0>        -0.0025
      3 C3         -1.0783   -0.8055    0.0027 C.2       1 <0>        -0.2134
      4 C4         -0.6011   -2.1363   -0.0068 C.2       1 <0>        -0.1847
      5 C5          0.7423   -2.0686   -0.0126 C.2       1 <0>        -0.0333
      6 O1          1.1020   -0.7746   -0.0131 O.3       1 <0>        -0.1707
      7 C6          1.6840   -3.2450   -0.0226 C.3       1 <0>         0.2406
      8 H1          1.1555   -4.1305   -0.3760 H         1 <0>         0.1107
      9 C7          2.2048   -3.4935    1.3944 C.3       1 <0>        -0.1714
     10 N1          2.8111   -2.9608   -0.9143 N.pl3     1 <0>        -0.7153
     11 C8          3.5154   -4.0070   -1.4999 C.ar      1 <0>         0.4188
     12 C9          3.1405   -5.3212   -1.2392 C.ar      1 <0>        -0.2376
     13 C10         3.8494   -6.3524   -1.8281 C.ar      1 <0>        -0.0011
     14 C11         4.9142   -6.0334   -2.6618 C.ar      1 <0>        -0.2086
     15 C12         5.2310   -4.7064   -2.8763 C.ar      1 <0>         0.1887
     16 N2          4.5329   -3.7432   -2.3047 N.ar      1 <0>        -0.5348
     17 Br1         5.9196   -7.4020   -3.4937 Br        1 <0>        -0.0407
     18 H2          1.0042    1.8801    0.0026 H         1 <0>         0.0770
     19 H3         -0.5455    1.8639   -0.8728 H         1 <0>         0.0878
     20 H4         -0.5286    1.8543    0.9071 H         1 <0>         0.0880
     21 H5         -2.1119   -0.4924    0.0097 H         1 <0>         0.1513
     22 H6         -1.2002   -3.0349   -0.0086 H         1 <0>         0.1515
     23 H7          2.8859   -4.3445    1.3872 H         1 <0>         0.0720
     24 H8          2.7333   -2.6081    1.7478 H         1 <0>         0.0670
     25 H9          1.3662   -3.7050    2.0578 H         1 <0>         0.0759
     26 H10         3.0662   -2.0428   -1.0961 H         1 <0>         0.4121
     27 H11         2.3075   -5.5333   -0.5854 H         1 <0>         0.1407
     28 H12         3.5816   -7.3823   -1.6439 H         1 <0>         0.1440
     29 H13         6.0578   -4.4535   -3.5235 H         1 <0>         0.1655
@<TRIPOS>BOND
     1    1    2 1
     2    1   18 1
     3    1   19 1
     4    1   20 1
     5    2    6 1
     6    2    3 2
     7    3    4 1
     8    3   21 1
     9    4    5 2
    10    4   22 1
    11    5    6 1
    12    5    7 1
    13    7    8 1
    14    7    9 1
    15    7   10 1
    16    9   23 1
    17    9   24 1
    18    9   25 1
    19   10   11 1
    20   10   26 1
    21   11   16 ar
    22   11   12 ar
    23   12   13 ar
    24   12   27 1
    25   13   14 ar
    26   13   28 1
    27   14   15 ar
    28   14   17 1
    29   15   16 ar
    30   15   29 1
@<TRIPOS>MOLECULE
ZINC49716301
   37    40     0     0     0
SMALL
USER_CHARGES

@<TRIPOS>ATOM
      1 C1          4.4110   -4.4744    0.2263 C.ar      1 <0>        -0.1092
      2 C2          5.4440   -3.5444    0.2060 C.ar      1 <0>        -0.1042
      3 C3          5.1472   -2.2003    0.1104 C.ar      1 <0>        -0.0611
      4 C4          3.8299   -1.7988    0.0365 C.ar      1 <0>        -0.1405
      5 C5          2.7579   -2.7232    0.0551 C.ar      1 <0>        -0.0726
      6 C6          3.1097   -4.0948    0.1544 C.ar      1 <0>        -0.1061
      7 C7          1.4738   -2.1585   -0.0275 C.2       1 <0>        -0.1884
      8 C8          1.3308   -0.8071   -0.1174 C.2       1 <0>        -0.1010
      9 S1          3.0177   -0.2257   -0.0919 S.3       1 <0>         0.1180
     10 C9          0.0960   -0.0235   -0.2115 C.2       1 <0>         0.5463
     11 O1         -0.9907   -0.5806   -0.1233 O.co2     1 <0>        -0.6680
     12 O2          0.1511    1.1881   -0.3782 O.co2     1 <0>        -0.6336
     13 C10         0.2566   -3.0470   -0.0170 C.3       1 <0>         0.0655
     14 N1         -0.2119   -3.2520   -1.3941 N.4       1 <0>        -0.3817
     15 C11         0.7447   -4.1090   -2.1335 C.3       1 <0>        -0.0179
     16 C12        -0.0800   -5.3585   -2.5731 C.3       1 <0>        -0.1052
     17 H1          0.3203   -5.9347   -3.4073 H         1 <0>         0.1391
     18 C13        -0.3189   -6.1396   -1.2433 C.3       1 <0>        -0.1351
     19 C14        -1.2606   -5.2218   -0.4291 C.3       1 <0>        -0.1518
     20 C15        -1.5186   -3.9794   -1.3877 C.3       1 <0>         0.0300
     21 H2         -2.3969   -3.3722   -1.1685 H         1 <0>         0.1697
     22 C16        -1.4813   -4.6816   -2.7903 C.3       1 <0>        -0.1426
     23 H3          4.6499   -5.5253    0.2967 H         1 <0>         0.1272
     24 H4          6.4716   -3.8715    0.2649 H         1 <0>         0.1356
     25 H5          5.9407   -1.4679    0.0940 H         1 <0>         0.1339
     26 H6          2.3331   -4.8450    0.1726 H         1 <0>         0.1170
     27 H7          0.5129   -4.0091    0.4266 H         1 <0>         0.1192
     28 H8         -0.5324   -2.5754    0.5689 H         1 <0>         0.1542
     29 H9          1.1272   -3.5818   -3.0075 H         1 <0>         0.1216
     30 H10         1.5659   -4.4081   -1.4822 H         1 <0>         0.1303
     31 H11        -0.7992   -7.0972   -1.4442 H         1 <0>         0.0902
     32 H12         0.6221   -6.2873   -0.7132 H         1 <0>         0.0799
     33 H13        -2.1988   -5.7336   -0.2147 H         1 <0>         0.1047
     34 H14        -0.7782   -4.9062    0.4959 H         1 <0>         0.0951
     35 H15        -1.4689   -3.9633   -3.6101 H         1 <0>         0.0970
     36 H16        -2.2794   -5.4151   -2.9048 H         1 <0>         0.1165
     37 H17        -0.3132   -2.3634   -1.8612 H         1 <0>         0.4281
@<TRIPOS>BOND
     1    1    6 ar
     2    1    2 ar
     3    1   23 1
     4    2    3 ar
     5    2   24 1
     6    3    4 ar
     7    3   25 1
     8    4    9 1
     9    4    5 ar
    10    5    6 ar
    11    5    7 1
    12    6   26 1
    13    7    8 2
    14    7   13 1
    15    8    9 1
    16    8   10 1
    17   10   11 2
    18   10   12 1
    19   13   14 1
    20   13   27 1
    21   13   28 1
    22   14   20 1
    23   14   15 1
    24   14   37 1
    25   15   16 1
    26   15   29 1
    27   15   30 1
    28   16   17 1
    29   16   22 1
    30   16   18 1
    31   18   19 1
    32   18   31 1
    33   18   32 1
    34   19   20 1
    35   19   33 1
    36   19   34 1
    37   20   21 1
    38   20   22 1
    39   22   35 1
    40   22   36 1
@<TRIPOS>MOLECULE
ZINC61099977
   33    35     0     0     0
SMALL
USER_CHARGES

@<TRIPOS>ATOM
      1 C1         -0.0184    1.5028    0.0103 C.3       1 <0>        -0.1089
      2 C2          0.0021   -0.0041    0.0020 C.2       1 <0>         0.0602
      3 C3          0.0055   -0.6557   -1.1599 C.2       1 <0>        -0.1811
      4 S1          0.0318   -2.3601   -0.6267 S.3       1 <0>         0.1378
      5 C4          0.0362   -2.0590    1.1250 C.2       1 <0>         0.1897
      6 N1          0.0227   -0.6910    1.1963 N.pl3     1 <0>        -0.4221
      7 C5          0.0314   -0.4059    2.5591 C.2       1 <0>        -0.0504
      8 C6          0.0539   -1.5745    3.2211 C.2       1 <0>         0.0773
      9 N2          0.0488   -2.5707    2.3220 N.2       1 <0>        -0.4418
     10 C7          0.0705   -1.7389    4.7190 C.3       1 <0>        -0.0749
     11 C8          0.0188    0.9672    3.1800 C.3       1 <0>         0.1978
     12 N3         -1.3663    1.3938    3.3938 N.pl3     1 <0>        -0.7306
     13 C9         -1.6333    2.6427    3.9625 C.ar      1 <0>         0.2665
     14 C10        -0.5861    3.4819    4.3195 C.ar      1 <0>        -0.2214
     15 C11        -0.8517    4.7178    4.8817 C.ar      1 <0>         0.1528
     16 C12        -2.1624    5.1185    5.0886 C.ar      1 <0>        -0.0284
     17 C13        -3.2086    4.2817    4.7330 C.ar      1 <0>         0.1523
     18 C14        -2.9459    3.0476    4.1654 C.ar      1 <0>        -0.2141
     19 F1         -4.4855    4.6736    4.9358 F         1 <0>        -0.1161
     20 F2         -2.4203    6.3256    5.6376 F         1 <0>        -0.1220
     21 F3          0.1669    5.5342    5.2296 F         1 <0>        -0.1162
     22 H1          1.0042    1.8801    0.0026 H         1 <0>         0.0851
     23 H2         -0.5455    1.8639   -0.8728 H         1 <0>         0.0921
     24 H3         -0.5286    1.8543    0.9071 H         1 <0>         0.0773
     25 H4         -0.0053   -0.2569   -2.1635 H         1 <0>         0.2177
     26 H5         -0.9530   -1.7927    5.0900 H         1 <0>         0.0798
     27 H6          0.5995   -2.6560    4.9780 H         1 <0>         0.0815
     28 H7          0.5770   -0.8869    5.1724 H         1 <0>         0.0774
     29 H8          0.5418    0.9386    4.1359 H         1 <0>         0.0949
     30 H9          0.5172    1.6717    2.5141 H         1 <0>         0.0771
     31 H10        -2.0982    0.8096    3.1409 H         1 <0>         0.4093
     32 H11         0.4352    3.1697    4.1587 H         1 <0>         0.1505
     33 H12        -3.7614    2.3978    3.8841 H         1 <0>         0.1510
@<TRIPOS>BOND
     1    1    2 1
     2    1   22 1
     3    1   23 1
     4    1   24 1
     5    2    6 1
     6    2    3 2
     7    3    4 1
     8    3   25 1
     9    4    5 1
    10    5    9 2
    11    5    6 1
    12    6    7 1
    13    7    8 2
    14    7   11 1
    15    8    9 1
    16    8   10 1
    17   10   26 1
    18   10   27 1
    19   10   28 1
    20   11   12 1
    21   11   29 1
    22   11   30 1
    23   12   13 1
    24   12   31 1
    25   13   18 ar
    26   13   14 ar
    27   14   15 ar
    28   14   32 1
    29   15   16 ar
    30   15   21 1
    31   16   17 ar
    32   16   20 1
    33   17   18 ar
    34   17   19 1
    35   18   33 1
@<TRIPOS>MOLECULE
ZINC04495788
   33    34     0     0     0
SMALL
USER_CHARGES
(6-methyl-3-methylsulfanyl-5-oxo-1,2,4-triazin-4-yl)methyl 3,4-difluorobenzoate
@<TRIPOS>ATOM
      1 C1          8.5642   -0.4507   -4.4483 C.3       1 <0>        -0.0860
      2 C2          7.4379   -1.0154   -3.6213 C.2       1 <0>         0.0176
      3 C3          7.2849   -0.6328   -2.2712 C.2       1 <0>         0.5032
      4 O1          8.0566    0.1560   -1.7520 O.2       1 <0>        -0.4686
      5 N1          6.2586   -1.1658   -1.5689 N.am      1 <0>        -0.5262
      6 C4          5.4287   -2.0469   -2.1958 C.2       1 <0>         0.2971
      7 N2          5.6223   -2.3615   -3.4659 N.2       1 <0>        -0.3317
      8 N3          6.5906   -1.8667   -4.1502 N.2       1 <0>        -0.1839
      9 S1          4.0856   -2.7661   -1.3105 S.3       1 <0>         0.0284
     10 C5          3.3734   -3.8056   -2.6099 C.3       1 <0>        -0.1466
     11 C6          6.0475   -0.8084   -0.1639 C.3       1 <0>         0.2605
     12 O2          4.9001    0.0748   -0.0563 O.3       1 <0>        -0.3454
     13 C7          5.0770    1.3562   -0.4329 C.2       1 <0>         0.5019
     14 O3          6.1822    1.7494   -0.7490 O.2       1 <0>        -0.4627
     15 C8          3.9281    2.2824   -0.4616 C.ar      1 <0>        -0.1120
     16 C9          4.1089    3.6117   -0.8517 C.ar      1 <0>        -0.0318
     17 C10         3.0334    4.4733   -0.8765 C.ar      1 <0>        -0.1346
     18 C11         1.7729    4.0240   -0.5149 C.ar      1 <0>         0.1093
     19 C12         1.5860    2.7042   -0.1262 C.ar      1 <0>         0.0590
     20 C13         2.6564    1.8331   -0.0982 C.ar      1 <0>        -0.0674
     21 F1          0.3551    2.2721    0.2252 F         1 <0>        -0.1189
     22 F2          0.7235    4.8747   -0.5354 F         1 <0>        -0.1163
     23 H1          9.4392   -1.0945   -4.3583 H         1 <0>         0.0885
     24 H2          8.2572   -0.3988   -5.4929 H         1 <0>         0.0887
     25 H3          8.8107    0.5494   -4.0918 H         1 <0>         0.0885
     26 H4          4.1181   -4.5265   -2.9474 H         1 <0>         0.1011
     27 H5          2.5063   -4.3360   -2.2164 H         1 <0>         0.1178
     28 H6          3.0670   -3.1802   -3.4484 H         1 <0>         0.1011
     29 H7          6.9333   -0.3016    0.2191 H         1 <0>         0.1323
     30 H8          5.8661   -1.7122    0.4176 H         1 <0>         0.1538
     31 H9          5.0904    3.9638   -1.1332 H         1 <0>         0.1577
     32 H10         3.1731    5.5008   -1.1781 H         1 <0>         0.1610
     33 H11         2.5111    0.8066    0.2045 H         1 <0>         0.1645
@<TRIPOS>BOND
     1    1    2 1
     2    1   23 1
     3    1   24 1
     4    1   25 1
     5    2    8 2
     6    2    3 1
     7    3    4 2
     8    3    5 am
     9    5    6 1
    10    5   11 1
    11    6    7 2
    12    6    9 1
    13    7    8 1
    14    9   10 1
    15   10   26 1
    16   10   27 1
    17   10   28 1
    18   11   12 1
    19   11   29 1
    20   11   30 1
    21   12   13 1
    22   13   14 2
    23   13   15 1
    24   15   20 ar
    25   15   16 ar
    26   16   17 ar
    27   16   31 1
    28   17   18 ar
    29   17   32 1
    30   18   19 ar
    31   18   22 1
    32   19   20 ar
    33   19   21 1
    34   20   33 1
@<TRIPOS>MOLECULE
ZINC12602616
   39    42     0     0     0
SMALL
USER_CHARGES
(2-indolin-1-yl-2-oxo-ethyl) 2-imidazo[2,1-b]thiazol-6-ylacetate
@<TRIPOS>ATOM
      1 C1         -3.9263    3.7294   -0.4234 C.ar      1 <0>        -0.1369
      2 C2         -3.8382    3.6705    0.9555 C.ar      1 <0>        -0.0819
      3 C3         -2.8098    2.9763    1.5560 C.ar      1 <0>        -0.1616
      4 C4         -1.8494    2.3274    0.7775 C.ar      1 <0>         0.1339
      5 C5         -1.9466    2.3925   -0.6031 C.ar      1 <0>        -0.1295
      6 C6         -2.9793    3.0896   -1.2008 C.ar      1 <0>        -0.0720
      7 C7         -0.7969    1.6152   -1.2037 C.3       1 <0>        -0.0875
      8 C8         -0.0127    1.0858    0.0080 C.3       1 <0>         0.1089
      9 N1         -0.7379    1.5779    1.1824 N.am      1 <0>        -0.5507
     10 C9         -0.3868    1.3423    2.4621 C.2       1 <0>         0.5283
     11 O1          0.5972    0.6773    2.7083 O.2       1 <0>        -0.4916
     12 C10        -1.2167    1.9051    3.5871 C.3       1 <0>         0.0485
     13 O2         -0.6361    1.5143    4.8593 O.3       1 <0>        -0.3362
     14 C11        -1.2601    1.9379    5.9697 C.2       1 <0>         0.4649
     15 O3         -2.2583    2.6128    5.8815 O.2       1 <0>        -0.4824
     16 C12        -0.7155    1.5716    7.3262 C.3       1 <0>        -0.0214
     17 C13        -1.5931    2.1666    8.3972 C.2       1 <0>         0.0413
     18 C14        -2.1867    1.4884    9.3932 C.2       1 <0>        -0.0248
     19 N2         -2.9006    2.4035   10.1622 N.pl3     1 <0>        -0.4363
     20 C15        -3.7023    2.4010   11.2829 C.2       1 <0>         0.0274
     21 C16        -4.2404    3.5310   11.7392 C.2       1 <0>        -0.1744
     22 S1         -3.6257    4.7314   10.5683 S.3       1 <0>         0.1293
     23 C17        -2.6900    3.6122    9.5528 C.2       1 <0>         0.1773
     24 N3         -1.9189    3.4630    8.5145 N.2       1 <0>        -0.4184
     25 H1         -4.7331    4.2737   -0.8916 H         1 <0>         0.1307
     26 H2         -4.5778    4.1698    1.5639 H         1 <0>         0.1328
     27 H3         -2.7469    2.9339    2.6334 H         1 <0>         0.1326
     28 H4         -3.0468    3.1343   -2.2777 H         1 <0>         0.1293
     29 H5         -0.1684    2.2709   -1.8064 H         1 <0>         0.0953
     30 H6         -1.1711    0.7872   -1.8057 H         1 <0>         0.0952
     31 H7          0.0021   -0.0041    0.0020 H         1 <0>         0.0872
     32 H8          1.0046    1.4772    0.0004 H         1 <0>         0.0875
     33 H9         -1.2362    2.9926    3.5153 H         1 <0>         0.1104
     34 H10        -2.2333    1.5181    3.5174 H         1 <0>         0.1091
     35 H11        -0.6997    0.4867    7.4306 H         1 <0>         0.1280
     36 H12         0.2973    1.9612    7.4285 H         1 <0>         0.1278
     37 H13        -2.1203    0.4246    9.5675 H         1 <0>         0.1863
     38 H14        -3.8971    1.4716   11.7973 H         1 <0>         0.1754
     39 H15        -4.8819    3.6819   12.5949 H         1 <0>         0.2184
@<TRIPOS>BOND
     1    1    6 ar
     2    1    2 ar
     3    1   25 1
     4    2    3 ar
     5    2   26 1
     6    3    4 ar
     7    3   27 1
     8    4    9 1
     9    4    5 ar
    10    5    6 ar
    11    5    7 1
    12    6   28 1
    13    7    8 1
    14    7   29 1
    15    7   30 1
    16    8    9 1
    17    8   31 1
    18    8   32 1
    19    9   10 am
    20   10   11 2
    21   10   12 1
    22   12   13 1
    23   12   33 1
    24   12   34 1
    25   13   14 1
    26   14   15 2
    27   14   16 1
    28   16   17 1
    29   16   35 1
    30   16   36 1
    31   17   24 1
    32   17   18 2
    33   18   19 1
    34   18   37 1
    35   19   23 1
    36   19   20 1
    37   20   21 2
    38   20   38 1
    39   21   22 1
    40   21   39 1
    41   22   23 1
    42   23   24 2
@<TRIPOS>MOLECULE
ZINC28058128
   43    44     0     0     0
SMALL
USER_CHARGES
ethyl 4-[(2S,5S)-2,5-dimethylmorpholin-4-yl]sulfonylbenzoate
@<TRIPOS>ATOM
      1 C1         -0.7527    1.5927   -1.2315 C.3       1 <0>        -0.1562
      2 C2         -0.0127    1.0858    0.0080 C.3       1 <0>         0.0605
      3 O1         -0.6923    1.5541    1.2026 O.3       1 <0>        -0.3511
      4 C3         -0.1642    1.1927    2.3881 C.2       1 <0>         0.5052
      5 O2          0.8366    0.5053    2.4228 O.2       1 <0>        -0.4934
      6 C4         -0.8023    1.6325    3.6458 C.ar      1 <0>        -0.0695
      7 C5         -1.9495    2.4275    3.6094 C.ar      1 <0>        -0.0819
      8 C6         -2.5436    2.8299    4.7877 C.ar      1 <0>        -0.0320
      9 C7         -1.9985    2.4569    6.0035 C.ar      1 <0>        -0.6490
     10 C8         -0.8584    1.6739    6.0468 C.ar      1 <0>        -0.0298
     11 C9         -0.2575    1.2598    4.8762 C.ar      1 <0>        -0.0750
     12 S1         -2.7592    2.9818    7.5036 S.o2      1 <0>         2.6876
     13 O3         -4.1208    3.2484    7.1969 O.2       1 <0>        -0.9461
     14 O4         -2.3720    2.0492    8.5034 O.2       1 <0>        -0.9463
     15 N1         -2.0749    4.4317    7.9183 N.pl3     1 <0>        -0.9962
     16 C10        -2.6477    5.7023    7.4463 C.3       1 <0>         0.0849
     17 C11        -2.8259    6.6304    8.6533 C.3       1 <0>         0.0779
     18 H1         -3.5595    6.2272    9.3669 H         1 <0>         0.0669
     19 O5         -1.5901    6.7173    9.3667 O.3       1 <0>        -0.3745
     20 C12        -1.1408    5.4748    9.9128 C.3       1 <0>         0.0579
     21 C13        -0.8797    4.4878    8.7749 C.3       1 <0>         0.1073
     22 H2         -0.6956    3.4757    9.1644 H         1 <0>         0.1123
     23 C14         0.3213    4.9607    7.9533 C.3       1 <0>        -0.1635
     24 C15        -3.2366    8.0230    8.1709 C.3       1 <0>        -0.1472
     25 H3         -0.2379    1.2379   -2.1365 H         1 <0>         0.0847
     26 H4         -0.7675    2.6926   -1.2254 H         1 <0>         0.0689
     27 H5         -1.7847    1.2120   -1.2236 H         1 <0>         0.0692
     28 H6          0.0021   -0.0141    0.0019 H         1 <0>         0.0748
     29 H7          1.0193    1.4665    0.0002 H         1 <0>         0.0747
     30 H8         -2.3734    2.7231    2.6611 H         1 <0>         0.1507
     31 H9         -3.4333    3.4414    4.7610 H         1 <0>         0.1500
     32 H10        -0.4384    1.3860    6.9991 H         1 <0>         0.1511
     33 H11         0.6325    0.6490    4.9113 H         1 <0>         0.1501
     34 H12        -1.9667    6.1623    6.7151 H         1 <0>         0.0831
     35 H13        -3.6213    5.5116    6.9712 H         1 <0>         0.1055
     36 H14        -0.2121    5.6378   10.4793 H         1 <0>         0.1114
     37 H15        -1.9126    5.0684   10.5830 H         1 <0>         0.0595
     38 H16         1.2126    5.0014    8.5967 H         1 <0>         0.0736
     39 H17         0.1162    5.9622    7.5472 H         1 <0>         0.0702
     40 H18         0.4985    4.2585    7.1254 H         1 <0>         0.0578
     41 H19        -3.3643    8.6883    9.0375 H         1 <0>         0.0705
     42 H20        -4.1852    7.9546    7.6182 H         1 <0>         0.0773
     43 H21        -2.4556    8.4273    7.5101 H         1 <0>         0.0681
@<TRIPOS>BOND
     1    1    2 1
     2    1   25 1
     3    1   26 1
     4    1   27 1
     5    2    3 1
     6    2   28 1
     7    2   29 1
     8    3    4 1
     9    4    5 2
    10    4    6 1
    11    6   11 ar
    12    6    7 ar
    13    7    8 ar
    14    7   30 1
    15    8    9 ar
    16    8   31 1
    17    9   10 ar
    18    9   12 1
    19   10   11 ar
    20   10   32 1
    21   11   33 1
    22   12   13 2
    23   12   14 2
    24   12   15 1
    25   15   21 1
    26   15   16 1
    27   16   17 1
    28   16   34 1
    29   16   35 1
    30   17   18 1
    31   17   19 1
    32   17   24 1
    33   19   20 1
    34   20   21 1
    35   20   36 1
    36   20   37 1
    37   21   22 1
    38   21   23 1
    39   23   38 1
    40   23   39 1
    41   23   40 1
    42   24   41 1
    43   24   42 1
    44   24   43 1
@<TRIPOS>MOLECULE
ZINC40523322
   47    49     0     0     0
SMALL
USER_CHARGES

@<TRIPOS>ATOM
      1 C1          1.1184   -0.1195    1.3131 C.3       1 <0>        -0.1544
      2 C2          0.6879   -1.3332    0.4868 C.3       1 <0>        -0.1236
      3 C3         -0.8250   -1.5242    0.6112 C.3       1 <0>        -0.1143
      4 C4         -1.2555   -2.7378   -0.2151 C.3       1 <0>        -0.0380
      5 C5         -2.7457   -2.9259   -0.0926 C.2       1 <0>         0.0756
      6 N1         -3.6946   -2.4232   -0.8493 N.2       1 <0>        -0.5199
      7 C6         -4.9597   -2.6757   -0.6221 C.2       1 <0>         0.1523
      8 C7         -5.2419   -3.4940    0.4494 C.2       1 <0>        -0.2876
      9 S1         -3.5923   -3.8363    1.0420 S.3       1 <0>         0.1510
     10 C8         -6.5365   -3.9590    0.9587 C.2       1 <0>         0.6157
     11 O1         -7.4493   -4.1834    0.1860 O.2       1 <0>        -0.5141
     12 N2         -6.7149   -4.1378    2.2826 N.am      1 <0>        -0.6081
     13 C9         -5.6678   -3.7491    3.2377 C.3       1 <0>         0.0856
     14 C10        -6.2749   -2.7864    4.2657 C.3       1 <0>         0.1164
     15 N3         -7.5204   -3.3730    4.7801 N.pl3     1 <0>        -0.5852
     16 C11        -8.5676   -3.7617    3.8250 C.3       1 <0>         0.1137
     17 C12        -7.9627   -4.7192    2.7973 C.3       1 <0>         0.1006
     18 C13        -7.7037   -3.5566    6.1396 C.ar      1 <0>         0.5658
     19 N4         -6.7436   -3.1918    6.9767 N.ar      1 <0>        -0.5721
     20 C14        -6.8871   -3.3531    8.2817 C.ar      1 <0>         0.1943
     21 C15        -8.0586   -3.9108    8.7693 C.ar      1 <0>        -0.2927
     22 C16        -9.0423   -4.2812    7.8659 C.ar      1 <0>         0.1947
     23 N5         -8.8373   -4.0879    6.5735 N.ar      1 <0>        -0.5708
     24 C17        -6.0504   -2.1001   -1.4882 C.3       1 <0>        -0.0842
     25 H1          2.1962    0.0165    1.2245 H         1 <0>         0.0569
     26 H2          0.6083    0.7704    0.9444 H         1 <0>         0.0550
     27 H3          0.8573   -0.2809    2.3590 H         1 <0>         0.0548
     28 H4          0.9490   -1.1718   -0.5591 H         1 <0>         0.0662
     29 H5          1.1980   -2.2231    0.8555 H         1 <0>         0.0654
     30 H6         -1.0861   -1.6855    1.6571 H         1 <0>         0.0673
     31 H7         -1.3351   -0.6342    0.2425 H         1 <0>         0.0718
     32 H8         -0.9944   -2.5764   -1.2609 H         1 <0>         0.1023
     33 H9         -0.7454   -3.6278    0.1536 H         1 <0>         0.0949
     34 H10        -5.2889   -4.6358    3.7460 H         1 <0>         0.0811
     35 H11        -4.8549   -3.2530    2.7075 H         1 <0>         0.0968
     36 H12        -5.5738   -2.6385    5.0871 H         1 <0>         0.1145
     37 H13        -6.4906   -1.8303    3.7888 H         1 <0>         0.0722
     38 H14        -9.3805   -4.2578    4.3552 H         1 <0>         0.1146
     39 H15        -8.9464   -2.8750    3.3166 H         1 <0>         0.0729
     40 H16        -8.6650   -4.8636    1.9764 H         1 <0>         0.1107
     41 H17        -7.7510   -5.6765    3.2736 H         1 <0>         0.0763
     42 H18        -6.1008   -3.0541    8.9591 H         1 <0>         0.1679
     43 H19        -8.2016   -4.0540    9.8302 H         1 <0>         0.1449
     44 H20        -9.9666   -4.7188    8.2132 H         1 <0>         0.1680
     45 H21        -6.2599   -2.7837   -2.3109 H         1 <0>         0.0862
     46 H22        -6.9525   -1.9615   -0.8922 H         1 <0>         0.0804
     47 H23        -5.7277   -1.1387   -1.8878 H         1 <0>         0.0781
@<TRIPOS>BOND
     1    1    2 1
     2    1   25 1
     3    1   26 1
     4    1   27 1
     5    2    3 1
     6    2   28 1
     7    2   29 1
     8    3    4 1
     9    3   30 1
    10    3   31 1
    11    4    5 1
    12    4   32 1
    13    4   33 1
    14    5    9 1
    15    5    6 2
    16    6    7 1
    17    7    8 2
    18    7   24 1
    19    8    9 1
    20    8   10 1
    21   10   11 2
    22   10   12 am
    23   12   17 1
    24   12   13 1
    25   13   14 1
    26   13   34 1
    27   13   35 1
    28   14   15 1
    29   14   36 1
    30   14   37 1
    31   15   16 1
    32   15   18 1
    33   16   17 1
    34   16   38 1
    35   16   39 1
    36   17   40 1
    37   17   41 1
    38   18   23 ar
    39   18   19 ar
    40   19   20 ar
    41   20   21 ar
    42   20   42 1
    43   21   22 ar
    44   21   43 1
    45   22   23 ar
    46   22   44 1
    47   24   45 1
    48   24   46 1
    49   24   47 1
@<TRIPOS>MOLECULE
ZINC63818282
   46    47     0     0     0
SMALL
USER_CHARGES

@<TRIPOS>ATOM
      1 C1         -0.0187    1.5258    0.0104 C.3       1 <0>        -0.1477
      2 C2          0.0021   -0.0041    0.0020 C.3       1 <0>        -0.0949
      3 C3          0.7421   -0.5109    1.2415 C.3       1 <0>        -0.1511
      4 C4         -1.4333   -0.5336    0.0129 C.3       1 <0>        -0.1326
      5 C5         -1.4157   -2.0577   -0.1212 C.3       1 <0>         0.1246
      6 N1         -2.7901   -2.5647   -0.1108 N.am      1 <0>        -0.6186
      7 C6         -3.5209   -2.9515    1.1017 C.3       1 <0>         0.1124
      8 C7         -4.7094   -3.8077    0.6112 C.3       1 <0>        -0.0967
      9 H1         -4.4527   -4.8671    0.6099 H         1 <0>         0.1312
     10 C8         -4.9018   -3.2833   -0.8307 C.3       1 <0>        -0.1369
     11 C9         -3.5458   -2.7301   -1.2101 C.2       1 <0>         0.5197
     12 O1         -3.1912   -2.4755   -2.3416 O.2       1 <0>        -0.5214
     13 C10        -5.9378   -3.5543    1.4465 C.2       1 <0>         0.4885
     14 O2         -5.8947   -2.7598    2.3646 O.2       1 <0>        -0.4736
     15 N2         -7.0732   -4.2028    1.1777 N.2       1 <0>        -0.4913
     16 C11        -8.1525   -3.9801    1.9117 C.2       1 <0>         0.3202
     17 N3         -9.3924   -4.5514    1.7893 N.2       1 <0>        -0.1626
     18 N4        -10.3417   -4.2989    2.5016 N.2       1 <0>        -0.0345
     19 C12       -10.0960   -3.2963    3.5649 C.3       1 <0>        -0.0589
     20 H2        -10.2262   -3.7278    4.5574 H         1 <0>         0.1779
     21 S1         -8.3234   -2.9317    3.2227 S.3       1 <0>        -0.0025
     22 C13       -10.9741   -2.0572    3.3793 C.3       1 <0>        -0.0576
     23 C14       -12.4479   -2.4591    3.4645 C.3       1 <0>        -0.1478
     24 C15       -10.6587   -1.0394    4.4772 C.3       1 <0>        -0.1540
     25 H3          1.0039    1.9031    0.0027 H         1 <0>         0.0564
     26 H4         -0.5459    1.8868   -0.8726 H         1 <0>         0.0547
     27 H5         -0.5289    1.8773    0.9072 H         1 <0>         0.0541
     28 H6          0.5123   -0.3556   -0.8948 H         1 <0>         0.0727
     29 H7          0.2319   -0.1594    2.1383 H         1 <0>         0.0551
     30 H8          0.7568   -1.6008    1.2356 H         1 <0>         0.0555
     31 H9          1.7647   -0.1336    1.2338 H         1 <0>         0.0562
     32 H10        -1.9156   -0.2570    0.9504 H         1 <0>         0.0657
     33 H11        -1.9862   -0.1019   -0.8214 H         1 <0>         0.0670
     34 H12        -0.9334   -2.3344   -1.0587 H         1 <0>         0.0848
     35 H13        -0.8628   -2.4894    0.7131 H         1 <0>         0.0830
     36 H14        -2.8786   -3.5386    1.7581 H         1 <0>         0.0893
     37 H15        -3.8839   -2.0653    1.6222 H         1 <0>         0.0898
     38 H16        -5.1852   -4.0972   -1.4980 H         1 <0>         0.1195
     39 H17        -5.6517   -2.4925   -0.8521 H         1 <0>         0.1047
     40 H18       -10.7744   -1.6132    2.4040 H         1 <0>         0.0859
     41 H19       -12.6476   -2.9031    4.4398 H         1 <0>         0.0657
     42 H20       -13.0735   -1.5764    3.3323 H         1 <0>         0.0715
     43 H21       -12.6726   -3.1842    2.6823 H         1 <0>         0.0700
     44 H22        -9.6087   -0.7531    4.4165 H         1 <0>         0.0635
     45 H23       -11.2843   -0.1567    4.3449 H         1 <0>         0.0761
     46 H24       -10.8584   -1.4834    5.4525 H         1 <0>         0.0667
@<TRIPOS>BOND
     1    1    2 1
     2    1   25 1
     3    1   26 1
     4    1   27 1
     5    2    3 1
     6    2    4 1
     7    2   28 1
     8    3   29 1
     9    3   30 1
    10    3   31 1
    11    4    5 1
    12    4   32 1
    13    4   33 1
    14    5    6 1
    15    5   34 1
    16    5   35 1
    17    6   11 am
    18    6    7 1
    19    7    8 1
    20    7   36 1
    21    7   37 1
    22    8    9 1
    23    8   10 1
    24    8   13 1
    25   10   11 1
    26   10   38 1
    27   10   39 1
    28   11   12 2
    29   13   14 2
    30   13   15 1
    31   15   16 2
    32   16   21 1
    33   16   17 1
    34   17   18 2
    35   18   19 1
    36   19   20 1
    37   19   21 1
    38   19   22 1
    39   22   23 1
    40   22   24 1
    41   22   40 1
    42   23   41 1
    43   23   42 1
    44   23   43 1
    45   24   44 1
    46   24   45 1
    47   24   46 1
@<TRIPOS>MOLECULE
ZINC04230742
   45    47     0     0     0
SMALL
USER_CHARGES
1-[1-[1-(2-methoxyethyl)tetrazol-5-yl]-2-methyl-propyl]indoline
@<TRIPOS>ATOM
      1 C1          3.3623    0.4962    2.4911 C.3       1 <0>        -0.1497
      2 C2          3.8515    1.3235    1.3007 C.3       1 <0>        -0.1234
      3 C3          5.3721    1.4754    1.3757 C.3       1 <0>        -0.1608
      4 C4          3.4732    0.6159   -0.0020 C.3       1 <0>         0.1645
      5 H1          3.9001   -0.3870   -0.0079 H         1 <0>         0.1089
      6 C5          1.9726    0.5238   -0.1062 C.2       1 <0>         0.2017
      7 N1          1.1472    1.4985   -0.4005 N.2       1 <0>        -0.2869
      8 N2         -0.0501    1.0229   -0.3902 N.2       1 <0>        -0.0685
      9 N3         -0.0100   -0.2300   -0.0970 N.2       1 <0>        -0.0870
     10 N4          1.2197   -0.5754    0.0854 N.pl3     1 <0>        -0.3020
     11 C6          1.7052   -1.9124    0.4357 C.3       1 <0>         0.1112
     12 C7          1.9914   -2.7023   -0.8430 C.3       1 <0>         0.0467
     13 O1          2.4650   -4.0065   -0.5013 O.3       1 <0>        -0.3835
     14 C8          2.7636   -4.8306   -1.6300 C.3       1 <0>         0.0319
     15 N5          3.9974    1.3780   -1.1432 N.pl3     1 <0>        -0.4601
     16 C9          3.7618    2.8274   -0.9659 C.3       1 <0>         0.0357
     17 C10         4.9650    3.4582   -1.7038 C.3       1 <0>        -0.0865
     18 C11         6.0146    2.3672   -1.6307 C.ar      1 <0>        -0.1360
     19 C12         5.3763    1.1810   -1.2874 C.ar      1 <0>         0.1048
     20 C13         6.1350    0.0214   -1.1399 C.ar      1 <0>        -0.1421
     21 C14         7.4995    0.0548   -1.3399 C.ar      1 <0>        -0.0918
     22 C15         8.1241    1.2383   -1.6875 C.ar      1 <0>        -0.1406
     23 C16         7.3783    2.3946   -1.8321 C.ar      1 <0>        -0.0783
     24 H2          3.8276   -0.4892    2.4645 H         1 <0>         0.0609
     25 H3          3.6318    1.0003    3.4192 H         1 <0>         0.0708
     26 H4          2.2790    0.3880    2.4378 H         1 <0>         0.0490
     27 H5          3.3862    2.3088    1.3274 H         1 <0>         0.0949
     28 H6          5.7016    2.2027    0.6337 H         1 <0>         0.0705
     29 H7          5.6543    1.8184    2.3710 H         1 <0>         0.0648
     30 H8          5.8436    0.5132    1.1757 H         1 <0>         0.0656
     31 H9          2.6205   -1.8248    1.0211 H         1 <0>         0.1183
     32 H10         0.9473   -2.4322    1.0219 H         1 <0>         0.1266
     33 H11         1.0761   -2.7899   -1.4285 H         1 <0>         0.0670
     34 H12         2.7493   -2.1826   -1.4292 H         1 <0>         0.0617
     35 H13         3.1167   -5.8030   -1.2866 H         1 <0>         0.0957
     36 H14         1.8644   -4.9624   -2.2317 H         1 <0>         0.0473
     37 H15         3.5375   -4.3550   -2.2324 H         1 <0>         0.0469
     38 H16         2.8227    3.1263   -1.4314 H         1 <0>         0.1079
     39 H17         3.7731    3.0945    0.0908 H         1 <0>         0.0787
     40 H18         5.3056    4.3566   -1.1891 H         1 <0>         0.0844
     41 H19         4.7095    3.6792   -2.7402 H         1 <0>         0.0893
     42 H20         5.6532   -0.9064   -0.8687 H         1 <0>         0.1169
     43 H21         8.0823   -0.8472   -1.2248 H         1 <0>         0.1260
     44 H22         9.1921    1.2601   -1.8462 H         1 <0>         0.1253
     45 H23         7.8650    3.3199   -2.1031 H         1 <0>         0.1231
@<TRIPOS>BOND
     1    1    2 1
     2    1   24 1
     3    1   25 1
     4    1   26 1
     5    2    3 1
     6    2    4 1
     7    2   27 1
     8    3   28 1
     9    3   29 1
    10    3   30 1
    11    4    5 1
    12    4    6 1
    13    4   15 1
    14    6   10 1
    15    6    7 2
    16    7    8 1
    17    8    9 2
    18    9   10 1
    19   10   11 1
    20   11   12 1
    21   11   31 1
    22   11   32 1
    23   12   13 1
    24   12   33 1
    25   12   34 1
    26   13   14 1
    27   14   35 1
    28   14   36 1
    29   14   37 1
    30   15   19 1
    31   15   16 1
    32   16   17 1
    33   16   38 1
    34   16   39 1
    35   17   18 1
    36   17   40 1
    37   17   41 1
    38   18   23 ar
    39   18   19 ar
    40   19   20 ar
    41   20   21 ar
    42   20   42 1
    43   21   22 ar
    44   21   43 1
    45   22   23 ar
    46   22   44 1
    47   23   45 1
@<TRIPOS>MOLECULE
ZINC32497759
   43    44     0     0     0
SMALL
USER_CHARGES
N-[[5-(4-tert-butylphenyl)-1,3,4-oxadiazol-2-yl]methyl]-N-methyl-methanesulfonamide
@<TRIPOS>ATOM
      1 C1         -1.4721    6.3583    8.2641 C.3       1 <0>        -0.1420
      2 C2         -1.7541    6.9345    6.8751 C.3       1 <0>        -0.0337
      3 C3         -0.7368    8.0339    6.5629 C.3       1 <0>        -0.1493
      4 C4         -3.1662    7.5225    6.8439 C.3       1 <0>        -0.1424
      5 C5         -1.6428    5.8400    5.8452 C.ar      1 <0>        -0.0405
      6 C6         -2.4694    4.7334    5.9241 C.ar      1 <0>        -0.1184
      7 C7         -2.3724    3.7277    4.9847 C.ar      1 <0>        -0.0607
      8 C8         -1.4378    3.8284    3.9532 C.ar      1 <0>        -0.0383
      9 C9         -0.6030    4.9445    3.8826 C.ar      1 <0>        -0.0760
     10 C10        -0.7142    5.9460    4.8251 C.ar      1 <0>        -0.1236
     11 C11        -1.3283    2.7544    2.9430 C.2       1 <0>         0.2188
     12 N1         -2.0432    1.6549    2.8953 N.2       1 <0>        -0.2800
     13 N2         -1.6781    0.9553    1.8790 N.2       1 <0>        -0.2649
     14 C12        -0.7181    1.5718    1.2479 C.2       1 <0>         0.1357
     15 O1         -0.4753    2.7219    1.8997 O.3       1 <0>        -0.2019
     16 C13        -0.0127    1.0858    0.0080 C.3       1 <0>         0.2215
     17 N3         -0.7213    1.5711   -1.1789 N.pl3     1 <0>        -0.9976
     18 C14        -1.8650    0.8228   -1.7062 C.3       1 <0>         0.0762
     19 S1         -0.2294    2.9656   -1.9243 S.o2      1 <0>         2.5984
     20 O2         -1.3940    3.4620   -2.5696 O.2       1 <0>        -0.9469
     21 O3          0.4084    3.7180   -0.9015 O.2       1 <0>        -0.9445
     22 C15         0.9882    2.4303   -3.1578 C.3       1 <0>        -0.6713
     23 H1         -2.2035    5.5679    8.4886 H         1 <0>         0.0595
     24 H2         -1.5533    7.1572    9.0159 H         1 <0>         0.0625
     25 H3         -0.4568    5.9355    8.2865 H         1 <0>         0.0584
     26 H4         -0.9395    8.4482    5.5643 H         1 <0>         0.0611
     27 H5          0.2784    7.6111    6.5853 H         1 <0>         0.0610
     28 H6         -0.8180    8.8328    7.3147 H         1 <0>         0.0622
     29 H7         -3.3689    7.9367    5.8452 H         1 <0>         0.0586
     30 H8         -3.2474    8.3214    7.5957 H         1 <0>         0.0625
     31 H9         -3.8975    6.7321    7.0684 H         1 <0>         0.0596
     32 H10        -3.1921    4.6565    6.7231 H         1 <0>         0.1342
     33 H11        -3.0180    2.8642    5.0476 H         1 <0>         0.1399
     34 H12         0.1256    5.0261    3.0896 H         1 <0>         0.1344
     35 H13        -0.0718    6.8124    4.7691 H         1 <0>         0.1382
     36 H14         1.0193    1.4666    0.0002 H         1 <0>         0.1190
     37 H15         0.0023   -0.0141    0.0019 H         1 <0>         0.1361
     38 H16        -2.2630    1.3381   -2.5928 H         1 <0>         0.0925
     39 H17        -2.6482    0.7596   -0.9364 H         1 <0>         0.0723
     40 H18        -1.5425   -0.1912   -1.9853 H         1 <0>         0.0724
     41 H19         1.3680    3.3072   -3.7027 H         1 <0>         0.1336
     42 H20         0.5118    1.7365   -3.8661 H         1 <0>         0.1322
     43 H21         1.8231    1.9226   -2.6526 H         1 <0>         0.1315
@<TRIPOS>BOND
     1    1    2 1
     2    1   23 1
     3    1   24 1
     4    1   25 1
     5    2    3 1
     6    2    4 1
     7    2    5 1
     8    3   26 1
     9    3   27 1
    10    3   28 1
    11    4   29 1
    12    4   30 1
    13    4   31 1
    14    5   10 ar
    15    5    6 ar
    16    6    7 ar
    17    6   32 1
    18    7    8 ar
    19    7   33 1
    20    8    9 ar
    21    8   11 1
    22    9   10 ar
    23    9   34 1
    24   10   35 1
    25   11   15 1
    26   11   12 2
    27   12   13 1
    28   13   14 2
    29   14   15 1
    30   14   16 1
    31   16   17 1
    32   16   36 1
    33   16   37 1
    34   17   18 1
    35   17   19 1
    36   18   38 1
    37   18   39 1
    38   18   40 1
    39   19   20 2
    40   19   21 2
    41   19   22 1
    42   22   41 1
    43   22   42 1
    44   22   43 1
@<TRIPOS>MOLECULE
ZINC39313709
   43    44     0     0     0
SMALL
USER_CHARGES

@<TRIPOS>ATOM
      1 C1         -0.0187    1.5258    0.0104 C.3       1 <0>        -0.1732
      2 C2          0.0021   -0.0041    0.0020 C.3       1 <0>        -0.0693
      3 H1          0.5128   -0.3525   -0.8957 H         1 <0>         0.1090
      4 C3         -1.4375   -0.5303    0.0024 C.3       1 <0>        -0.0601
      5 C4         -2.0932   -0.1101    1.3022 C.2       1 <0>         0.1273
      6 C5         -1.3538    0.1083    2.4308 C.2       1 <0>        -0.2390
      7 C6         -2.3381    0.5093    3.4942 C.3       1 <0>        -0.0547
      8 H2         -2.3287   -0.2032    4.3190 H         1 <0>         0.1468
      9 C7         -3.6627    0.4577    2.7513 C.2       1 <0>         0.1476
     10 N1         -3.3893    0.0964    1.5291 N.2       1 <0>        -0.4125
     11 C8         -4.9995    0.7577    3.3061 C.2       1 <0>         0.5375
     12 O1         -5.1144    1.0846    4.4697 O.2       1 <0>        -0.4732
     13 O2         -6.0906    0.6683    2.5204 O.3       1 <0>        -0.3227
     14 C9         -7.3503    0.9724    3.1226 C.3       1 <0>         0.0767
     15 C10        -8.2963    1.5448    2.0650 C.3       1 <0>        -0.1504
     16 C11        -7.9556   -0.3036    3.7112 C.3       1 <0>        -0.1736
     17 C12        -2.0474    1.9244    3.9981 C.3       1 <0>        -0.1228
     18 C13         0.0466   -0.0434    2.4897 C.2       1 <0>         0.4254
     19 O3          0.6618    0.1885    3.5100 O.2       1 <0>        -0.4163
     20 C14         0.7514   -0.5062    1.2369 C.3       1 <0>        -0.1257
     21 H3          0.7874   -1.5955    1.2213 H         1 <0>         0.1480
     22 C15         2.1555    0.0412    1.2284 C.2       1 <0>         0.4751
     23 O4          2.5186    0.7591    0.3270 O.2       1 <0>        -0.4898
     24 O5          3.0027   -0.2688    2.2224 O.3       1 <0>        -0.3356
     25 C16         4.3180    0.2852    2.1502 C.3       1 <0>         0.0329
     26 H4          1.0039    1.9031    0.0027 H         1 <0>         0.0886
     27 H5         -0.5459    1.8868   -0.8726 H         1 <0>         0.0683
     28 H6         -0.5289    1.8773    0.9072 H         1 <0>         0.0493
     29 H7         -1.9845   -0.1061   -0.8396 H         1 <0>         0.1087
     30 H8         -1.4318   -1.6177   -0.0721 H         1 <0>         0.1058
     31 H9         -7.2062    1.7057    3.9161 H         1 <0>         0.0882
     32 H10        -8.4405    0.8115    1.2715 H         1 <0>         0.0706
     33 H11        -9.2572    1.7767    2.5244 H         1 <0>         0.0821
     34 H12        -7.8651    2.4538    1.6457 H         1 <0>         0.0663
     35 H13        -7.2816   -0.7114    4.4646 H         1 <0>         0.0619
     36 H14        -8.9164   -0.0717    4.1705 H         1 <0>         0.0790
     37 H15        -8.0997   -1.0369    2.9177 H         1 <0>         0.0691
     38 H16        -2.1207    2.6277    3.1685 H         1 <0>         0.0613
     39 H17        -2.7723    2.1924    4.7667 H         1 <0>         0.0826
     40 H18        -1.0422    1.9613    4.4180 H         1 <0>         0.0822
     41 H19         4.8984   -0.0433    3.0123 H         1 <0>         0.1050
     42 H20         4.8044   -0.0519    1.2349 H         1 <0>         0.0623
     43 H21         4.2543    1.3733    2.1483 H         1 <0>         0.0619
@<TRIPOS>BOND
     1    1    2 1
     2    1   26 1
     3    1   27 1
     4    1   28 1
     5    2    3 1
     6    2   20 1
     7    2    4 1
     8    4    5 1
     9    4   29 1
    10    4   30 1
    11    5   10 1
    12    5    6 2
    13    6    7 1
    14    6   18 1
    15    7    8 1
    16    7    9 1
    17    7   17 1
    18    9   10 2
    19    9   11 1
    20   11   12 2
    21   11   13 1
    22   13   14 1
    23   14   15 1
    24   14   16 1
    25   14   31 1
    26   15   32 1
    27   15   33 1
    28   15   34 1
    29   16   35 1
    30   16   36 1
    31   16   37 1
    32   17   38 1
    33   17   39 1
    34   17   40 1
    35   18   19 2
    36   18   20 1
    37   20   21 1
    38   20   22 1
    39   22   23 2
    40   22   24 1
    41   24   25 1
    42   25   41 1
    43   25   42 1
    44   25   43 1
@<TRIPOS>MOLECULE
ZINC49422762
   38    38     0     0     0
SMALL
USER_CHARGES

@<TRIPOS>ATOM
      1 C1         -0.0187    1.5258    0.0104 C.3       1 <0>        -0.1517
      2 C2          0.0021   -0.0041    0.0020 C.3       1 <0>         0.0790
      3 C3          0.7421   -0.5109    1.2415 C.3       1 <0>        -0.1743
      4 O1         -1.3386   -0.4987    0.0122 O.3       1 <0>        -0.2506
      5 C4         -1.5599   -1.6909   -0.5967 C.2       1 <0>         0.2759
      6 N1         -0.7068   -2.4872   -1.2070 N.2       1 <0>        -0.3593
      7 N2         -1.1464   -3.6662   -1.7633 N.2       1 <0>        -0.2793
      8 C5         -2.4223   -3.9939   -1.6824 C.2       1 <0>         0.0210
      9 S1         -3.0848   -2.6035   -0.7775 S.3       1 <0>         0.0827
     10 S2         -3.2496   -5.4229   -2.2975 S.3       1 <0>         0.1399
     11 C6         -1.9328   -6.3840   -3.0930 C.3       1 <0>        -0.1611
     12 C7         -2.5128   -7.6500   -3.6691 C.2       1 <0>         0.5483
     13 O2         -3.6978   -7.8811   -3.5543 O.2       1 <0>        -0.5084
     14 N3         -1.7147   -8.5253   -4.3118 N.am      1 <0>        -0.6040
     15 C8         -0.2832   -8.2461   -4.4505 C.3       1 <0>         0.0632
     16 C9         -2.2785   -9.7560   -4.8718 C.3       1 <0>         0.2807
     17 C10        -2.9085  -10.5847   -3.7505 C.3       1 <0>        -0.1649
     18 C11        -3.3481   -9.4021   -5.9070 C.3       1 <0>        -0.1652
     19 C12        -1.2100  -10.5360   -5.5174 C.1       1 <0>         0.2018
     20 N4         -0.3853  -11.1379   -6.0156 N.1       1 <0>        -0.3973
     21 H1          1.0039    1.9031    0.0027 H         1 <0>         0.0870
     22 H2         -0.5459    1.8868   -0.8726 H         1 <0>         0.0684
     23 H3         -0.5289    1.8773    0.9072 H         1 <0>         0.0716
     24 H4          0.5123   -0.3556   -0.8948 H         1 <0>         0.0917
     25 H5          0.7568   -1.6008    1.2356 H         1 <0>         0.0639
     26 H6          1.7647   -0.1336    1.2338 H         1 <0>         0.0811
     27 H7          0.2319   -0.1594    2.1383 H         1 <0>         0.0692
     28 H8         -1.4840   -5.7936   -3.8918 H         1 <0>         0.1318
     29 H9         -1.1708   -6.6362   -2.3555 H         1 <0>         0.1318
     30 H10         0.2526   -8.6633   -3.5979 H         1 <0>         0.0698
     31 H11         0.0879   -8.6991   -5.3698 H         1 <0>         0.0759
     32 H12        -0.1251   -7.1683   -4.4869 H         1 <0>         0.0862
     33 H13        -3.6998  -10.0072   -3.2725 H         1 <0>         0.1015
     34 H14        -3.3281  -11.5004   -4.1672 H         1 <0>         0.0793
     35 H15        -2.1465  -10.8369   -3.0130 H         1 <0>         0.0667
     36 H16        -2.8993   -8.8117   -6.7059 H         1 <0>         0.0666
     37 H17        -3.7676  -10.3177   -6.3237 H         1 <0>         0.0793
     38 H18        -4.1394   -8.8245   -5.4290 H         1 <0>         0.1016
@<TRIPOS>BOND
     1    1    2 1
     2    1   21 1
     3    1   22 1
     4    1   23 1
     5    2    3 1
     6    2    4 1
     7    2   24 1
     8    3   25 1
     9    3   26 1
    10    3   27 1
    11    4    5 1
    12    5    9 1
    13    5    6 2
    14    6    7 1
    15    7    8 2
    16    8    9 1
    17    8   10 1
    18   10   11 1
    19   11   12 1
    20   11   28 1
    21   11   29 1
    22   12   13 2
    23   12   14 am
    24   14   15 1
    25   14   16 1
    26   15   30 1
    27   15   31 1
    28   15   32 1
    29   16   17 1
    30   16   18 1
    31   16   19 1
    32   17   33 1
    33   17   34 1
    34   17   35 1
    35   18   36 1
    36   18   37 1
    37   18   38 1
    38   19   20 3
@<TRIPOS>MOLECULE
ZINC40005083
   37    39     0     0     0
SMALL
USER_CHARGES

@<TRIPOS>ATOM
      1 C1          1.9286    0.7352    0.4567 C.3       1 <0>        -0.1290
      2 C2          0.9348   -0.3719    0.2159 C.ar      1 <0>        -0.0436
      3 C3          0.9365   -1.0531   -0.9856 C.ar      1 <0>        -0.1167
      4 C4          0.0247   -2.0687   -1.2075 C.ar      1 <0>        -0.0842
      5 C5         -0.8911   -2.4057   -0.2277 C.ar      1 <0>        -0.1145
      6 C6         -0.8974   -1.7283    0.9760 C.ar      1 <0>        -0.0513
      7 C7          0.0204   -0.7118    1.2036 C.ar      1 <0>         0.0982
      8 N1          0.0199   -0.0259    2.4266 N.pl3     1 <0>        -0.3049
      9 C8          0.2279   -0.5450    3.6629 C.2       1 <0>         0.2113
     10 N2          0.1391    0.4502    4.5189 N.2       1 <0>        -0.3305
     11 N3         -0.1090    1.5506    3.9054 N.2       1 <0>        -0.0264
     12 N4         -0.1900    1.3486    2.6349 N.2       1 <0>        -0.0681
     13 S1          0.5551   -2.2328    4.0489 S.3       1 <0>         0.0973
     14 C9          0.7304   -2.2440    5.8544 C.3       1 <0>        -0.1703
     15 C10         1.0167   -3.6476    6.3226 C.2       1 <0>         0.4548
     16 O1          1.0947   -4.5516    5.5173 O.2       1 <0>        -0.4180
     17 C11         1.2005   -3.9201    7.7487 C.2       1 <0>         0.0393
     18 N5          1.1404   -3.0587    8.7252 N.2       1 <0>        -0.4004
     19 C12         1.3504   -3.5988    9.9274 C.2       1 <0>        -0.0156
     20 C13         1.5783   -4.9160    9.8656 C.2       1 <0>        -0.1474
     21 C14         1.4930   -5.2632    8.3903 C.3       1 <0>        -0.1279
     22 C15        -1.8960   -2.0959    2.0431 C.3       1 <0>        -0.1327
     23 H1          2.7915    0.3387    0.9918 H         1 <0>         0.0750
     24 H2          2.2517    1.1476   -0.4991 H         1 <0>         0.0801
     25 H3          1.4612    1.5199    1.0516 H         1 <0>         0.0773
     26 H4          1.6506   -0.7921   -1.7527 H         1 <0>         0.1383
     27 H5          0.0275   -2.5995   -2.1481 H         1 <0>         0.1368
     28 H6         -1.6023   -3.1990   -0.4040 H         1 <0>         0.1396
     29 H7          1.5528   -1.5897    6.1437 H         1 <0>         0.1425
     30 H8         -0.1936   -1.8899    6.3114 H         1 <0>         0.1434
     31 H9          1.3382   -3.0349   10.8485 H         1 <0>         0.1681
     32 H10         1.7759   -5.5876   10.6879 H         1 <0>         0.1651
     33 H11         0.6812   -5.9660    8.2029 H         1 <0>         0.1389
     34 H12         2.4421   -5.6633    8.0338 H         1 <0>         0.1381
     35 H13        -1.4701   -2.8622    2.6908 H         1 <0>         0.0946
     36 H14        -2.1369   -1.2128    2.6349 H         1 <0>         0.0595
     37 H15        -2.8032   -2.4785    1.5754 H         1 <0>         0.0831
@<TRIPOS>BOND
     1    1    2 1
     2    1   23 1
     3    1   24 1
     4    1   25 1
     5    2    7 ar
     6    2    3 ar
     7    3    4 ar
     8    3   26 1
     9    4    5 ar
    10    4   27 1
    11    5    6 ar
    12    5   28 1
    13    6    7 ar
    14    6   22 1
    15    7    8 1
    16    8   12 1
    17    8    9 1
    18    9   10 2
    19    9   13 1
    20   10   11 1
    21   11   12 2
    22   13   14 1
    23   14   15 1
    24   14   29 1
    25   14   30 1
    26   15   16 2
    27   15   17 1
    28   17   21 1
    29   17   18 2
    30   18   19 1
    31   19   20 2
    32   19   31 1
    33   20   21 1
    34   20   32 1
    35   21   33 1
    36   21   34 1
    37   22   35 1
    38   22   36 1
    39   22   37 1
@<TRIPOS>MOLECULE
ZINC00523556
   39    41     0     0     0
SMALL
USER_CHARGES
methyl 4-(3-benzoyl-2,2-dicyano-cyclopropyl)benzoate
@<TRIPOS>ATOM
      1 C1          5.4792   -0.2185   -6.7083 C.3       1 <0>         0.0364
      2 O1          4.7198   -0.3115   -5.4743 O.3       1 <0>        -0.3545
      3 C2          4.3380    0.8468   -4.9023 C.2       1 <0>         0.5079
      4 O2          4.6315    1.9056   -5.4202 O.2       1 <0>        -0.5033
      5 C3          3.5625    0.8294   -3.6451 C.ar      1 <0>        -0.1189
      6 C4          3.1652    2.0281   -3.0495 C.ar      1 <0>        -0.0458
      7 C5          2.4407    2.0046   -1.8759 C.ar      1 <0>        -0.1085
      8 C6          2.1077    0.7967   -1.2888 C.ar      1 <0>        -0.0297
      9 C7          2.5027   -0.3949   -1.8709 C.ar      1 <0>        -0.1161
     10 C8          3.2230   -0.3860   -3.0473 C.ar      1 <0>        -0.0499
     11 C9          1.3165    0.7789   -0.0063 C.3       1 <0>        -0.0474
     12 H1          1.8654    1.0708    0.8890 H         1 <0>         0.1674
     13 C10        -0.1631    1.1606   -0.0837 C.3       1 <0>        -0.1484
     14 H2         -0.3533    1.8921    0.5711 H         1 <0>         0.1536
     15 C11         0.2399   -0.2976    0.1446 C.3       1 <0>         0.1146
     16 C12         0.0246   -0.8599    1.4879 C.1       1 <0>         0.2338
     17 N1         -0.1416   -1.2938    2.5245 N.1       1 <0>        -0.3654
     18 C13         0.0561   -1.2367   -0.9739 C.1       1 <0>         0.2301
     19 N2         -0.0857   -1.9614   -1.8371 N.1       1 <0>        -0.3530
     20 C14        -0.7177    1.5256   -1.4366 C.2       1 <0>         0.4081
     21 O3         -0.2490    1.0282   -2.4382 O.2       1 <0>        -0.4133
     22 C15        -1.8281    2.4856   -1.5420 C.ar      1 <0>        -0.1646
     23 C16        -2.3751    3.0570   -0.3887 C.ar      1 <0>        -0.0735
     24 C17        -3.4112    3.9605   -0.4962 C.ar      1 <0>        -0.1312
     25 C18        -3.9178    4.2931   -1.7405 C.ar      1 <0>        -0.0824
     26 C19        -3.3860    3.7272   -2.8862 C.ar      1 <0>        -0.1308
     27 C20        -2.3456    2.8269   -2.7957 C.ar      1 <0>        -0.0555
     28 H3          4.8856    0.2988   -7.4622 H         1 <0>         0.0650
     29 H4          6.3999    0.3362   -6.5274 H         1 <0>         0.0652
     30 H5          5.7223   -1.2205   -7.0619 H         1 <0>         0.1046
     31 H6          3.4241    2.9716   -3.5069 H         1 <0>         0.1411
     32 H7          2.1325    2.9310   -1.4143 H         1 <0>         0.1354
     33 H8          2.2430   -1.3341   -1.4052 H         1 <0>         0.1270
     34 H9          3.5274   -1.3168   -3.5026 H         1 <0>         0.1403
     35 H10        -1.9838    2.7951    0.5832 H         1 <0>         0.1342
     36 H11        -3.8313    4.4066    0.3931 H         1 <0>         0.1320
     37 H12        -4.7322    4.9982   -1.8180 H         1 <0>         0.1295
     38 H13        -3.7867    3.9918   -3.8536 H         1 <0>         0.1313
     39 H14        -1.9311    2.3866   -3.6906 H         1 <0>         0.1350
@<TRIPOS>BOND
     1    1    2 1
     2    1   28 1
     3    1   29 1
     4    1   30 1
     5    2    3 1
     6    3    4 2
     7    3    5 1
     8    5   10 ar
     9    5    6 ar
    10    6    7 ar
    11    6   31 1
    12    7    8 ar
    13    7   32 1
    14    8    9 ar
    15    8   11 1
    16    9   10 ar
    17    9   33 1
    18   10   34 1
    19   11   12 1
    20   11   15 1
    21   11   13 1
    22   13   14 1
    23   13   15 1
    24   13   20 1
    25   15   16 1
    26   15   18 1
    27   16   17 3
    28   18   19 3
    29   20   21 2
    30   20   22 1
    31   22   27 ar
    32   22   23 ar
    33   23   24 ar
    34   23   35 1
    35   24   25 ar
    36   24   36 1
    37   25   26 ar
    38   25   37 1
    39   26   27 ar
    40   26   38 1
    41   27   39 1
@<TRIPOS>MOLECULE
ZINC11849523
   40    42     0     0     0
SMALL
USER_CHARGES
3-methoxy-4-(2-methyl-6-phenyl-pyrimidin-4-yl)oxy-benzaldehyde
@<TRIPOS>ATOM
      1 C1          0.9990    3.5265   -0.3432 C.3       1 <0>        -0.0861
      2 C2          1.0817    2.0241   -0.2580 C.ar      1 <0>         0.3647
      3 N1          2.2649    1.4472   -0.2794 N.ar      1 <0>        -0.5334
      4 C3          2.3800    0.1212   -0.2062 C.ar      1 <0>         0.2520
      5 C4          1.2245   -0.6521   -0.1060 C.ar      1 <0>        -0.2410
      6 C5         -0.0045    0.0002   -0.0869 C.ar      1 <0>         0.3712
      7 N2         -0.0326    1.3268   -0.1642 N.ar      1 <0>        -0.5649
      8 O1         -1.1566   -0.7072    0.0098 O.3       1 <0>        -0.2303
      9 C6         -2.3198   -0.0176    0.1295 C.ar      1 <0>         0.0891
     10 C7         -2.8469    0.2381    1.3892 C.ar      1 <0>        -0.0894
     11 C8         -4.0262    0.9369    1.5172 C.ar      1 <0>        -0.0835
     12 C9         -4.6972    1.3918    0.3756 C.ar      1 <0>        -0.1453
     13 C10        -4.1653    1.1337   -0.8937 C.ar      1 <0>        -0.1515
     14 C11        -2.9793    0.4372   -1.0124 C.ar      1 <0>         0.1269
     15 O2         -2.4568    0.1894   -2.2433 O.3       1 <0>        -0.3051
     16 C12        -3.1850    0.6843   -3.3688 C.3       1 <0>         0.0232
     17 C13        -5.9557    2.1372    0.5091 C.2       1 <0>         0.3822
     18 O3         -6.4151    2.3595    1.6095 O.2       1 <0>        -0.4492
     19 C14         3.7166   -0.5214   -0.2314 C.ar      1 <0>        -0.0642
     20 C15         3.8276   -1.9083   -0.1491 C.ar      1 <0>        -0.0890
     21 C16         5.0735   -2.5011   -0.1788 C.ar      1 <0>        -0.1250
     22 C17         6.2114   -1.7209   -0.2782 C.ar      1 <0>        -0.0978
     23 C18         6.1075   -0.3436   -0.3550 C.ar      1 <0>        -0.1277
     24 C19         4.8665    0.2597   -0.3319 C.ar      1 <0>        -0.0679
     25 H1          1.0273    3.9494    0.6609 H         1 <0>         0.0896
     26 H2          1.8427    3.9046   -0.9207 H         1 <0>         0.0900
     27 H3          0.0674    3.8120   -0.8317 H         1 <0>         0.0859
     28 H4          1.2817   -1.7288   -0.0451 H         1 <0>         0.1558
     29 H5         -2.3300   -0.1120    2.2705 H         1 <0>         0.1430
     30 H6         -4.4333    1.1345    2.4978 H         1 <0>         0.1446
     31 H7         -4.6789    1.4828   -1.7772 H         1 <0>         0.1460
     32 H8         -2.6601    0.4187   -4.2864 H         1 <0>         0.1042
     33 H9         -4.1816    0.2430   -3.3794 H         1 <0>         0.0603
     34 H10        -3.2686    1.7689   -3.2990 H         1 <0>         0.0596
     35 H11        -6.4720    2.4874   -0.3724 H         1 <0>         0.1102
     36 H12         2.9401   -2.5181   -0.0666 H         1 <0>         0.1293
     37 H13         5.1605   -3.5760   -0.1196 H         1 <0>         0.1297
     38 H14         7.1846   -2.1887   -0.2962 H         1 <0>         0.1271
     39 H15         6.9992    0.2607   -0.4327 H         1 <0>         0.1292
     40 H16         4.7865    1.3351   -0.3919 H         1 <0>         0.1377
@<TRIPOS>BOND
     1    1    2 1
     2    1   25 1
     3    1   26 1
     4    1   27 1
     5    2    7 ar
     6    2    3 ar
     7    3    4 ar
     8    4    5 ar
     9    4   19 1
    10    5    6 ar
    11    5   28 1
    12    6    7 ar
    13    6    8 1
    14    8    9 1
    15    9   14 ar
    16    9   10 ar
    17   10   11 ar
    18   10   29 1
    19   11   12 ar
    20   11   30 1
    21   12   13 ar
    22   12   17 1
    23   13   14 ar
    24   13   31 1
    25   14   15 1
    26   15   16 1
    27   16   32 1
    28   16   33 1
    29   16   34 1
    30   17   18 2
    31   17   35 1
    32   19   24 ar
    33   19   20 ar
    34   20   21 ar
    35   20   36 1
    36   21   22 ar
    37   21   37 1
    38   22   23 ar
    39   22   38 1
    40   23   24 ar
    41   23   39 1
    42   24   40 1
@<TRIPOS>MOLECULE
ZINC37520240
   43    44     0     0     0
SMALL
USER_CHARGES

@<TRIPOS>ATOM
      1 C1         -1.0591    1.6643    1.3250 C.3       1 <0>        -0.1534
      2 C2         -1.1155    0.1361    1.2791 C.3       1 <0>         0.0620
      3 O1          0.0830   -0.4019    1.8415 O.3       1 <0>        -0.3547
      4 C3          0.1927   -1.7393    1.8768 C.2       1 <0>         0.4619
      5 O2         -0.6994   -2.4302    1.4446 O.2       1 <0>        -0.4867
      6 C4          1.4284   -2.3789    2.4556 C.3       1 <0>         0.0573
      7 N1          1.3049   -3.8407    2.3787 N.3       1 <0>        -0.5169
      8 C5          0.2368   -4.3273    3.2669 C.3       1 <0>         0.0313
      9 C6         -0.0582   -5.7890    2.9255 C.3       1 <0>         0.1228
     10 N2          1.1842   -6.5553    2.8906 N.am      1 <0>        -0.5635
     11 C7          2.3877   -5.9838    2.7768 C.2       1 <0>         0.5309
     12 O3          3.3671   -6.6973    2.7245 O.2       1 <0>        -0.5230
     13 C8          2.5775   -4.4948    2.7111 C.3       1 <0>         0.0737
     14 H1          2.9293   -4.1319    3.6769 H         1 <0>         0.0846
     15 C9          3.6153   -4.1620    1.6373 C.3       1 <0>        -0.1379
     16 C10         1.1122   -7.9498    2.9806 C.ar      1 <0>         0.1394
     17 C11         1.1662   -8.5706    4.2219 C.ar      1 <0>        -0.0995
     18 C12         1.0950   -9.9471    4.3082 C.ar      1 <0>        -0.1007
     19 C13         0.9705  -10.7080    3.1603 C.ar      1 <0>        -0.0684
     20 C14         0.9168  -10.0931    1.9218 C.ar      1 <0>        -0.0302
     21 C15         0.9809   -8.7152    1.8298 C.ar      1 <0>        -0.0924
     22 Cl1         0.7610  -11.0522    0.4832 Cl        1 <0>        -0.0600
     23 C16         0.8935  -12.2099    3.2583 C.3       1 <0>        -0.1223
     24 H2         -0.2002    2.0136    0.7519 H         1 <0>         0.0676
     25 H3         -1.9732    2.0747    0.8961 H         1 <0>         0.0810
     26 H4         -0.9636    1.9935    2.3597 H         1 <0>         0.0669
     27 H5         -1.9744   -0.2132    1.8522 H         1 <0>         0.0680
     28 H6         -1.2110   -0.1931    0.2444 H         1 <0>         0.0694
     29 H7          2.3028   -2.0579    1.8895 H         1 <0>         0.1273
     30 H8          1.5394   -2.0780    3.4973 H         1 <0>         0.0852
     31 H9          0.5621   -4.2528    4.3046 H         1 <0>         0.0497
     32 H10        -0.6622   -3.7288    3.1195 H         1 <0>         0.1110
     33 H11        -0.7217   -6.2101    3.6809 H         1 <0>         0.0855
     34 H12        -0.5432   -5.8419    1.9507 H         1 <0>         0.0829
     35 H13         3.7609   -3.0826    1.5948 H         1 <0>         0.0692
     36 H14         4.5603   -4.6467    1.8826 H         1 <0>         0.0805
     37 H15         3.2641   -4.5196    0.6694 H         1 <0>         0.0707
     38 H16         1.2641   -7.9773    5.1191 H         1 <0>         0.1295
     39 H17         1.1370  -10.4299    5.2734 H         1 <0>         0.1381
     40 H18         0.9339   -8.2350    0.8635 H         1 <0>         0.1353
     41 H19        -0.1485  -12.5148    3.3550 H         1 <0>         0.0786
     42 H20         1.3204  -12.6549    2.3595 H         1 <0>         0.0755
     43 H21         1.4531  -12.5462    4.1312 H         1 <0>         0.0736
@<TRIPOS>BOND
     1    1    2 1
     2    1   24 1
     3    1   25 1
     4    1   26 1
     5    2    3 1
     6    2   27 1
     7    2   28 1
     8    3    4 1
     9    4    5 2
    10    4    6 1
    11    6    7 1
    12    6   29 1
    13    6   30 1
    14    7   13 1
    15    7    8 1
    16    8    9 1
    17    8   31 1
    18    8   32 1
    19    9   10 1
    20    9   33 1
    21    9   34 1
    22   10   11 am
    23   10   16 1
    24   11   12 2
    25   11   13 1
    26   13   14 1
    27   13   15 1
    28   15   35 1
    29   15   36 1
    30   15   37 1
    31   16   21 ar
    32   16   17 ar
    33   17   18 ar
    34   17   38 1
    35   18   19 ar
    36   18   39 1
    37   19   20 ar
    38   19   23 1
    39   20   21 ar
    40   20   22 1
    41   21   40 1
    42   23   41 1
    43   23   42 1
    44   23   43 1
@<TRIPOS>MOLECULE
ZINC55347745
   35    36     0     0     0
SMALL
USER_CHARGES

@<TRIPOS>ATOM
      1 C1         -0.0187    1.5258    0.0104 C.3       1 <0>        -0.1509
      2 C2          0.0021   -0.0041    0.0020 C.3       1 <0>        -0.1218
      3 C3         -1.4333   -0.5336    0.0129 C.3       1 <0>        -0.0394
      4 C4         -1.4129   -2.0405    0.0046 C.2       1 <0>         0.2561
      5 N1         -1.4074   -2.8123   -1.0881 N.2       1 <0>        -0.5082
      6 C5         -1.3887   -4.0709   -0.7470 C.2       1 <0>         0.2913
      7 O1         -1.3816   -4.1430    0.5900 O.3       1 <0>        -0.0984
      8 N2         -1.3920   -2.8031    1.0597 N.2       1 <0>        -0.3155
      9 C6         -1.3771   -5.2426   -1.6947 C.3       1 <0>        -0.4952
     10 H1         -1.1204   -4.8973   -2.6962 H         1 <0>         0.1847
     11 C7         -2.7619   -5.8928   -1.7188 C.3       1 <0>        -0.1458
     12 S1         -0.1487   -6.4567   -1.1402 S.o2      1 <0>         2.5057
     13 O2          1.1620   -5.9263   -1.2817 O.2       1 <0>        -0.8941
     14 O3         -0.5627   -7.0478    0.0838 O.2       1 <0>        -0.8826
     15 C8         -0.2358   -7.7610   -2.3216 C.ar      1 <0>        -0.7653
     16 C9         -1.1116   -8.8151   -2.1255 C.ar      1 <0>         0.2618
     17 C10        -1.1800   -9.8399   -3.0537 C.ar      1 <0>        -0.2207
     18 C11        -0.3732   -9.8104   -4.1782 C.ar      1 <0>         0.2266
     19 C12         0.5019   -8.7558   -4.3747 C.ar      1 <0>        -0.2204
     20 C13         0.5673   -7.7289   -3.4487 C.ar      1 <0>         0.2616
     21 F1          1.4179   -6.6974   -3.6428 F         1 <0>        -0.0902
     22 F2         -0.4394  -10.8109   -5.0835 F         1 <0>        -0.1053
     23 F3         -1.8990   -8.8439   -1.0281 F         1 <0>        -0.0887
     24 H2          1.0039    1.9031    0.0027 H         1 <0>         0.0626
     25 H3         -0.5459    1.8868   -0.8726 H         1 <0>         0.0599
     26 H4         -0.5289    1.8773    0.9072 H         1 <0>         0.0588
     27 H5          0.5123   -0.3556   -0.8948 H         1 <0>         0.0731
     28 H6          0.5293   -0.3651    0.8851 H         1 <0>         0.0692
     29 H7         -1.9435   -0.1821    0.9097 H         1 <0>         0.1006
     30 H8         -1.9605   -0.1726   -0.8702 H         1 <0>         0.1062
     31 H9         -3.5001   -5.1632   -2.0520 H         1 <0>         0.0978
     32 H10        -2.7535   -6.7402   -2.4042 H         1 <0>         0.0886
     33 H11        -3.0187   -6.2380   -0.7173 H         1 <0>         0.0942
     34 H12        -1.8627  -10.6626   -2.9004 H         1 <0>         0.1720
     35 H13         1.1316   -8.7330   -5.2518 H         1 <0>         0.1718
@<TRIPOS>BOND
     1    1    2 1
     2    1   24 1
     3    1   25 1
     4    1   26 1
     5    2    3 1
     6    2   27 1
     7    2   28 1
     8    3    4 1
     9    3   29 1
    10    3   30 1
    11    4    8 2
    12    4    5 1
    13    5    6 2
    14    6    7 1
    15    6    9 1
    16    7    8 1
    17    9   10 1
    18    9   11 1
    19    9   12 1
    20   11   31 1
    21   11   32 1
    22   11   33 1
    23   12   13 2
    24   12   14 2
    25   12   15 1
    26   15   20 ar
    27   15   16 ar
    28   16   17 ar
    29   16   23 1
    30   17   18 ar
    31   17   34 1
    32   18   19 ar
    33   18   22 1
    34   19   20 ar
    35   19   35 1
    36   20   21 1
@<TRIPOS>MOLECULE
ZINC58427318
   42    44     0     0     0
SMALL
USER_CHARGES

@<TRIPOS>ATOM
      1 C1         -0.0173    1.4248    0.0099 C.3       1 <0>         0.0353
      2 O1          0.0021   -0.0041    0.0020 O.3       1 <0>        -0.3569
      3 C2          0.6181   -0.6108    1.0287 C.2       1 <0>         0.4597
      4 O2          1.1242    0.0494    1.9050 O.2       1 <0>        -0.4716
      5 C3          0.6786   -2.1154    1.0883 C.3       1 <0>         0.0754
      6 H1          1.1872   -2.5019    0.2051 H         1 <0>         0.0983
      7 C4         -0.7581   -2.7002    1.1704 C.3       1 <0>        -0.1220
      8 C5         -0.9228   -2.9216    2.6818 C.3       1 <0>        -0.0968
      9 H2         -1.1446   -1.9850    3.1933 H         1 <0>         0.0899
     10 C6         -1.9141   -4.0039    3.0742 C.3       1 <0>        -0.1061
     11 C7         -1.8409   -4.1583    4.6017 C.3       1 <0>        -0.1220
     12 C8         -0.4296   -4.5125    5.0608 C.3       1 <0>        -0.1160
     13 C9          0.5992   -3.4903    4.5495 C.3       1 <0>        -0.1033
     14 C10         0.4965   -3.4381    3.0429 C.3       1 <0>         0.0765
     15 H3          0.6192   -4.4488    2.6538 H         1 <0>         0.0568
     16 N1          1.3981   -2.5452    2.3158 N.3       1 <0>        -0.4952
     17 C11         2.6573   -3.2222    1.9781 C.3       1 <0>         0.1469
     18 C12         3.6341   -2.2182    1.4224 C.2       1 <0>         0.0785
     19 N2          4.5328   -1.4796    2.0410 N.2       1 <0>        -0.2438
     20 N3          5.2838   -0.6765    1.4231 N.2       1 <0>        -0.2841
     21 C13         5.2138   -0.5263    0.1064 C.2       1 <0>         0.0363
     22 S1          3.9096   -1.6949   -0.2676 S.3       1 <0>         0.0030
     23 S2          6.1425    0.5181   -0.9666 S.3       1 <0>         0.0546
     24 C14         7.2755    1.3945    0.1464 C.3       1 <0>        -0.1511
     25 H4          1.0053    1.8021    0.0021 H         1 <0>         0.0579
     26 H5         -0.5445    1.7859   -0.8732 H         1 <0>         0.1038
     27 H6         -0.5275    1.7763    0.9067 H         1 <0>         0.0605
     28 H7         -1.4919   -1.9849    0.7989 H         1 <0>         0.0908
     29 H8         -0.8265   -3.6435    0.6285 H         1 <0>         0.0904
     30 H9         -2.9212   -3.7092    2.7790 H         1 <0>         0.0707
     31 H10        -1.6460   -4.9445    2.5931 H         1 <0>         0.0678
     32 H11        -2.1429   -3.2211    5.0693 H         1 <0>         0.0629
     33 H12        -2.5254   -4.9473    4.9132 H         1 <0>         0.0653
     34 H13        -0.4031   -4.5308    6.1503 H         1 <0>         0.0687
     35 H14        -0.1689   -5.5008    4.6822 H         1 <0>         0.0616
     36 H15         0.3776   -2.5048    4.9590 H         1 <0>         0.0735
     37 H16         1.6034   -3.7971    4.8421 H         1 <0>         0.0685
     38 H17         3.0761   -3.6788    2.8749 H         1 <0>         0.1257
     39 H18         2.4662   -3.9942    1.2327 H         1 <0>         0.0766
     40 H19         7.9006    2.0740   -0.4329 H         1 <0>         0.1210
     41 H20         6.6999    1.9636    0.8764 H         1 <0>         0.0958
     42 H21         7.9068    0.6725    0.6644 H         1 <0>         0.0961
@<TRIPOS>BOND
     1    1    2 1
     2    1   25 1
     3    1   26 1
     4    1   27 1
     5    2    3 1
     6    3    4 2
     7    3    5 1
     8    5    6 1
     9    5   16 1
    10    5    7 1
    11    7    8 1
    12    7   28 1
    13    7   29 1
    14    8    9 1
    15    8   14 1
    16    8   10 1
    17   10   11 1
    18   10   30 1
    19   10   31 1
    20   11   12 1
    21   11   32 1
    22   11   33 1
    23   12   13 1
    24   12   34 1
    25   12   35 1
    26   13   14 1
    27   13   36 1
    28   13   37 1
    29   14   15 1
    30   14   16 1
    31   16   17 1
    32   17   18 1
    33   17   38 1
    34   17   39 1
    35   18   22 1
    36   18   19 2
    37   19   20 1
    38   20   21 2
    39   21   22 1
    40   21   23 1
    41   23   24 1
    42   24   40 1
    43   24   41 1
    44   24   42 1
@<TRIPOS>MOLECULE
ZINC03366880
   39    41     0     0     0
SMALL
USER_CHARGES
[2-(3,4-difluorophenyl)-2-oxo-ethyl] 1-methyl-4-oxo-8-thia-5-azabicyclo[3.3.0]octane-6-carboxylate
@<TRIPOS>ATOM
      1 C1         11.7835   -1.7712   -0.5755 C.3       1 <0>        -0.1390
      2 C2         10.7572   -0.7682   -1.1062 C.3       1 <0>         0.1800
      3 C3         11.3893    0.5566   -1.5626 C.3       1 <0>        -0.1100
      4 C4         11.3538    1.3551   -0.2358 C.3       1 <0>        -0.1398
      5 C5         10.2132    0.7407    0.5423 C.2       1 <0>         0.5542
      6 O1          9.7778    1.1735    1.5882 O.2       1 <0>        -0.4972
      7 N1          9.7437   -0.3662   -0.0943 N.am      1 <0>        -0.6255
      8 C6          8.5414   -1.2055   -0.0874 C.3       1 <0>         0.1694
      9 H1          8.5401   -1.7971    0.8280 H         1 <0>         0.1245
     10 C7          8.4135   -2.1718   -1.2884 C.3       1 <0>        -0.0626
     11 S1          9.6727   -1.4443   -2.4317 S.3       1 <0>        -0.2561
     12 C8          7.3330   -0.3052   -0.0705 C.2       1 <0>         0.4526
     13 O2          7.4737    0.8949   -0.0651 O.2       1 <0>        -0.4733
     14 O3          6.1003   -0.8364   -0.0616 O.3       1 <0>        -0.3366
     15 C9          4.9830    0.0908   -0.0454 C.3       1 <0>         0.0346
     16 C10         3.6892   -0.6818   -0.0372 C.2       1 <0>         0.4020
     17 O4          3.7070   -1.8944   -0.0443 O.2       1 <0>        -0.4125
     18 C11         2.4054    0.0344   -0.0207 C.ar      1 <0>        -0.1506
     19 C12         1.2022   -0.6802   -0.0131 C.ar      1 <0>        -0.0344
     20 C13         0.0021   -0.0041    0.0020 C.ar      1 <0>        -0.1340
     21 C14        -0.0167    1.3825    0.0096 C.ar      1 <0>         0.1064
     22 C15         1.1732    2.0990    0.0021 C.ar      1 <0>         0.0620
     23 C16         2.3816    1.4334   -0.0129 C.ar      1 <0>        -0.0828
     24 F1          1.1472    3.4497    0.0096 F         1 <0>        -0.1199
     25 F2         -1.1974    2.0392    0.0188 F         1 <0>        -0.1173
     26 H2         11.2715   -2.6763   -0.2485 H         1 <0>         0.0701
     27 H3         12.4912   -2.0197   -1.3664 H         1 <0>         0.0882
     28 H4         12.3188   -1.3322    0.2664 H         1 <0>         0.0757
     29 H5         10.7839    1.0390   -2.3300 H         1 <0>         0.0989
     30 H6         12.4129    0.4083   -1.9067 H         1 <0>         0.1035
     31 H7         11.1572    2.4093   -0.4310 H         1 <0>         0.1163
     32 H8         12.2921    1.2356    0.3058 H         1 <0>         0.1136
     33 H9          8.6783   -3.1906   -1.0057 H         1 <0>         0.1242
     34 H10         7.4148   -2.1316   -1.7233 H         1 <0>         0.1342
     35 H11         5.0196    0.6711   -0.8590 H         1 <0>         0.0977
     36 H12         5.0402    0.7131    0.8476 H         1 <0>         0.1115
     37 H13         1.2145   -1.7601   -0.0186 H         1 <0>         0.1567
     38 H14        -0.9266   -0.5553    0.0075 H         1 <0>         0.1588
     39 H15         3.3066    1.9907   -0.0191 H         1 <0>         0.1562
@<TRIPOS>BOND
     1    1    2 1
     2    1   26 1
     3    1   27 1
     4    1   28 1
     5    2    7 1
     6    2   11 1
     7    2    3 1
     8    3    4 1
     9    3   29 1
    10    3   30 1
    11    4    5 1
    12    4   31 1
    13    4   32 1
    14    5    6 2
    15    5    7 am
    16    7    8 1
    17    8    9 1
    18    8   10 1
    19    8   12 1
    20   10   11 1
    21   10   33 1
    22   10   34 1
    23   12   13 2
    24   12   14 1
    25   14   15 1
    26   15   16 1
    27   15   35 1
    28   15   36 1
    29   16   17 2
    30   16   18 1
    31   18   23 ar
    32   18   19 ar
    33   19   20 ar
    34   19   37 1
    35   20   21 ar
    36   20   38 1
    37   21   22 ar
    38   21   25 1
    39   22   23 ar
    40   22   24 1
    41   23   39 1
@<TRIPOS>MOLECULE
ZINC12862599
   52    55     0     0     0
SMALL
USER_CHARGES
(2R)-2-[(4,5-dicyclopropyl-1,2,4-triazol-3-yl)sulfanyl]-1-[(2R,6R)-2,6-dimethyl-1-piperidyl]propan-1-one
@<TRIPOS>ATOM
      1 C1         -5.4679    6.5923    3.2581 C.3       1 <0>        -0.1655
      2 C2         -5.6079    5.1853    2.6737 C.3       1 <0>         0.1260
      3 H1         -4.7943    4.9955    1.9737 H         1 <0>         0.0968
      4 C3         -6.9555    5.0569    1.9472 C.3       1 <0>        -0.1308
      5 C4         -8.0914    5.1901    2.9641 C.3       1 <0>        -0.1228
      6 C5         -7.9907    4.0629    3.9944 C.3       1 <0>        -0.1320
      7 C6         -6.6578    4.1764    4.7409 C.3       1 <0>         0.1443
      8 H2         -6.6419    5.0981    5.3224 H         1 <0>         0.0743
      9 N1         -5.5656    4.1950    3.7583 N.am      1 <0>        -0.5953
     10 C7         -4.5416    3.3239    3.8532 C.2       1 <0>         0.5408
     11 O1         -4.4613    2.5844    4.8111 O.2       1 <0>        -0.5178
     12 C8         -3.4963    3.2688    2.7691 C.3       1 <0>        -0.1295
     13 H3         -3.9639    3.4607    1.8034 H         1 <0>         0.1207
     14 C9         -2.4267    4.3294    3.0375 C.3       1 <0>        -0.1445
     15 S1         -2.7295    1.6293    2.7530 S.3       1 <0>         0.0821
     16 C10        -1.6915    1.7908    1.3384 C.2       1 <0>         0.1407
     17 N2         -1.5764    2.8501    0.5715 N.2       1 <0>        -0.2859
     18 N3         -0.7308    2.6189   -0.3683 N.2       1 <0>        -0.2819
     19 C11        -0.2598    1.4089   -0.2586 C.2       1 <0>         0.2262
     20 N4         -0.8585    0.8362    0.8294 N.pl3     1 <0>        -0.4298
     21 C12        -0.6477   -0.5193    1.3438 C.3       1 <0>         0.0470
     22 C13        -1.6949   -1.0797    2.3082 C.3       1 <0>        -0.1739
     23 C14        -0.3163   -0.6673    2.8301 C.3       1 <0>        -0.1691
     24 C15         0.7524    0.7589   -1.1663 C.3       1 <0>        -0.0926
     25 C16         1.1364    1.5047   -2.4458 C.3       1 <0>        -0.1462
     26 C17         2.1263    1.4221   -1.2821 C.3       1 <0>        -0.1545
     27 C18        -6.4883    2.9753    5.6734 C.3       1 <0>        -0.1410
     28 H4         -4.5178    6.6736    3.7861 H         1 <0>         0.0610
     29 H5         -5.4996    7.3254    2.4521 H         1 <0>         0.0724
     30 H6         -6.2867    6.7804    3.9526 H         1 <0>         0.0650
     31 H7         -7.0169    4.0846    1.4584 H         1 <0>         0.0684
     32 H8         -7.0414    5.8462    1.2003 H         1 <0>         0.0786
     33 H9         -9.0496    5.1263    2.4486 H         1 <0>         0.0679
     34 H10        -8.0148    6.1525    3.4701 H         1 <0>         0.0684
     35 H11        -8.0424    3.1000    3.4864 H         1 <0>         0.0677
     36 H12        -8.8135    4.1447    4.7046 H         1 <0>         0.0768
     37 H13        -1.9590    4.1375    4.0032 H         1 <0>         0.0697
     38 H14        -1.6706    4.2895    2.2533 H         1 <0>         0.0890
     39 H15        -2.8884    5.3167    3.0472 H         1 <0>         0.0706
     40 H16        -0.1768   -1.2170    0.6512 H         1 <0>         0.1525
     41 H17        -2.5407   -0.4400    2.5600 H         1 <0>         0.1161
     42 H18        -1.9127   -2.1462    2.2504 H         1 <0>         0.1228
     43 H19         0.3724   -1.4626    3.1154 H         1 <0>         0.1186
     44 H20        -0.2547    0.2439    3.4251 H         1 <0>         0.1096
     45 H21         0.7136   -0.3295   -1.2105 H         1 <0>         0.1242
     46 H22         1.3503    0.9070   -3.3318 H         1 <0>         0.1063
     47 H23         0.6569    2.4658   -2.6313 H         1 <0>         0.1106
     48 H24         2.2980    2.3288   -0.7020 H         1 <0>         0.1006
     49 H25         2.9914    0.7700   -1.4021 H         1 <0>         0.1064
     50 H26        -5.5931    3.1101    6.2804 H         1 <0>         0.0784
     51 H27        -7.3594    2.8943    6.3235 H         1 <0>         0.0474
     52 H28        -6.3917    2.0657    5.0805 H         1 <0>         0.0651
@<TRIPOS>BOND
     1    1    2 1
     2    1   28 1
     3    1   29 1
     4    1   30 1
     5    2    3 1
     6    2    9 1
     7    2    4 1
     8    4    5 1
     9    4   31 1
    10    4   32 1
    11    5    6 1
    12    5   33 1
    13    5   34 1
    14    6    7 1
    15    6   35 1
    16    6   36 1
    17    7    8 1
    18    7    9 1
    19    7   27 1
    20    9   10 am
    21   10   11 2
    22   10   12 1
    23   12   13 1
    24   12   14 1
    25   12   15 1
    26   14   37 1
    27   14   38 1
    28   14   39 1
    29   15   16 1
    30   16   20 1
    31   16   17 2
    32   17   18 1
    33   18   19 2
    34   19   20 1
    35   19   24 1
    36   20   21 1
    37   21   23 1
    38   21   22 1
    39   21   40 1
    40   22   23 1
    41   22   41 1
    42   22   42 1
    43   23   43 1
    44   23   44 1
    45   24   26 1
    46   24   25 1
    47   24   45 1
    48   25   26 1
    49   25   46 1
    50   25   47 1
    51   26   48 1
    52   26   49 1
    53   27   50 1
    54   27   51 1
    55   27   52 1
@<TRIPOS>MOLECULE
ZINC46478414
   49    51     0     0     0
SMALL
USER_CHARGES

@<TRIPOS>ATOM
      1 C1         -0.0156    1.5028    0.0120 C.3       1 <0>        -0.1212
      2 C2          0.0041   -0.0040    0.0032 C.ar      1 <0>        -0.0664
      3 C3         -1.0413   -0.7111    0.5690 C.ar      1 <0>        -0.1078
      4 C4         -1.0262   -2.0919    0.5626 C.ar      1 <0>        -0.0996
      5 C5          0.0401   -2.7706   -0.0132 C.ar      1 <0>         0.1150
      6 C6          1.0878   -2.0579   -0.5808 C.ar      1 <0>        -0.0728
      7 C7          1.0644   -0.6767   -0.5755 C.ar      1 <0>        -0.0746
      8 C8          2.1984    0.0977   -1.1964 C.3       1 <0>        -0.1178
      9 N1          0.0586   -4.1710   -0.0209 N.pl3     1 <0>        -0.4149
     10 C9          0.1671   -4.9914    1.0931 C.2       1 <0>        -0.0081
     11 C10         0.1479   -6.2527    0.6747 C.2       1 <0>         0.0107
     12 N2          0.0271   -6.2423   -0.7064 N.pl3     1 <0>        -0.4525
     13 C11        -0.0317   -4.9583   -1.1109 C.2       1 <0>         0.4646
     14 S1         -0.1892   -4.4206   -2.7286 S.2       1 <0>        -0.6183
     15 C12        -0.0325   -7.4214   -1.5738 C.3       1 <0>         0.2826
     16 N3         -1.4320   -7.8341   -1.7437 N.3       1 <0>        -0.5511
     17 C13        -2.1015   -7.0171   -2.7647 C.3       1 <0>         0.0124
     18 C14        -1.5235   -9.2635   -2.0700 C.3       1 <0>         0.1334
     19 C15        -2.9626   -9.7047   -1.9952 C.2       1 <0>        -0.2516
     20 C16        -3.6157  -10.2005   -0.8526 C.2       1 <0>         0.1241
     21 N4         -4.8475  -10.4739   -1.1777 N.2       1 <0>        -0.3227
     22 O1         -5.0170  -10.1579   -2.5478 O.3       1 <0>        -0.0803
     23 C17        -3.8485   -9.6872   -3.0096 C.2       1 <0>         0.0888
     24 C18        -3.5743   -9.2239   -4.4172 C.3       1 <0>        -0.1042
     25 C19        -2.9984  -10.3840    0.5099 C.3       1 <0>        -0.0825
     26 H1         -0.5133    1.8649   -0.8877 H         1 <0>         0.0767
     27 H2         -0.5547    1.8540    0.8918 H         1 <0>         0.0701
     28 H3          1.0069    1.8794    0.0381 H         1 <0>         0.0728
     29 H4         -1.8701   -0.1828    1.0166 H         1 <0>         0.1336
     30 H5         -1.8424   -2.6435    1.0052 H         1 <0>         0.1278
     31 H6          1.9184   -2.5828   -1.0290 H         1 <0>         0.1289
     32 H7          2.9647    0.2856   -0.4443 H         1 <0>         0.0735
     33 H8          2.6270   -0.4797   -2.0155 H         1 <0>         0.0709
     34 H9          1.8236    1.0472   -1.5784 H         1 <0>         0.0738
     35 H10         0.2522   -4.6630    2.1184 H         1 <0>         0.1955
     36 H11         0.2146   -7.1306    1.3002 H         1 <0>         0.1977
     37 H12         0.3955   -7.1789   -2.5465 H         1 <0>         0.0956
     38 H13         0.5337   -8.2350   -1.1204 H         1 <0>         0.1112
     39 H14        -1.5852   -7.1318   -3.7177 H         1 <0>         0.0415
     40 H15        -3.1361   -7.3437   -2.8703 H         1 <0>         0.0658
     41 H16        -2.0801   -5.9698   -2.4635 H         1 <0>         0.0913
     42 H17        -1.1440   -9.4311   -3.0779 H         1 <0>         0.0557
     43 H18        -0.9301   -9.8373   -1.3582 H         1 <0>         0.0899
     44 H19        -3.2295  -10.0666   -5.0164 H         1 <0>         0.0966
     45 H20        -4.4888   -8.8195   -4.8512 H         1 <0>         0.0904
     46 H21        -2.8064   -8.4505   -4.4020 H         1 <0>         0.1003
     47 H22        -3.1286   -9.4727    1.0935 H         1 <0>         0.0902
     48 H23        -3.4851  -11.2151    1.0203 H         1 <0>         0.0805
     49 H24        -1.9349  -10.5971    0.4013 H         1 <0>         0.0847
@<TRIPOS>BOND
     1    1    2 1
     2    1   26 1
     3    1   27 1
     4    1   28 1
     5    2    7 ar
     6    2    3 ar
     7    3    4 ar
     8    3   29 1
     9    4    5 ar
    10    4   30 1
    11    5    6 ar
    12    5    9 1
    13    6    7 ar
    14    6   31 1
    15    7    8 1
    16    8   32 1
    17    8   33 1
    18    8   34 1
    19    9   13 1
    20    9   10 1
    21   10   11 2
    22   10   35 1
    23   11   12 1
    24   11   36 1
    25   12   13 1
    26   12   15 1
    27   13   14 2
    28   15   16 1
    29   15   37 1
    30   15   38 1
    31   16   17 1
    32   16   18 1
    33   17   39 1
    34   17   40 1
    35   17   41 1
    36   18   19 1
    37   18   42 1
    38   18   43 1
    39   19   23 2
    40   19   20 1
    41   20   21 2
    42   20   25 1
    43   21   22 1
    44   22   23 1
    45   23   24 1
    46   24   44 1
    47   24   45 1
    48   24   46 1
    49   25   47 1
    50   25   48 1
    51   25   49 1
@<TRIPOS>MOLECULE
ZINC08088670
   50    51     0     0     0
SMALL
USER_CHARGES

@<TRIPOS>ATOM
      1 C1         -0.0187    1.5258    0.0104 C.3       1 <0>        -0.1397
      2 C2          0.0021   -0.0041    0.0020 C.3       1 <0>        -0.0391
      3 C3          0.7421   -0.5109    1.2415 C.3       1 <0>        -0.1411
      4 C4         -1.4333   -0.5336    0.0129 C.3       1 <0>        -0.1482
      5 C5          0.7074   -0.4901   -1.2379 C.ar      1 <0>        -0.0103
      6 C6          0.0361   -1.2843   -2.1485 C.ar      1 <0>        -0.1411
      7 C7          0.6831   -1.7301   -3.2859 C.ar      1 <0>        -0.0165
      8 C8          2.0014   -1.3813   -3.5127 C.ar      1 <0>        -0.6835
      9 C9          2.6724   -0.5863   -2.6025 C.ar      1 <0>        -0.0181
     10 C10         2.0241   -0.1370   -1.4673 C.ar      1 <0>        -0.1363
     11 S1          2.8264   -1.9505   -4.9618 S.o2      1 <0>         2.6895
     12 O1          4.2169   -1.9365   -4.6694 O.2       1 <0>        -0.9516
     13 O2          2.1477   -3.1268   -5.3801 O.2       1 <0>        -0.9501
     14 N1          2.5798   -0.8164   -6.1431 N.pl3     1 <0>        -0.9971
     15 C11         1.4140   -0.9053   -7.0336 C.3       1 <0>         0.1054
     16 C12         0.6350    0.4134   -6.9542 C.3       1 <0>         0.0980
     17 N2          1.5776    1.5271   -7.1304 N.am      1 <0>        -0.6085
     18 C13         2.7433    1.6160   -6.2399 C.3       1 <0>         0.0895
     19 C14         3.5194    0.3004   -6.3157 C.3       1 <0>         0.1038
     20 C15         1.3768    2.4501   -8.0918 C.2       1 <0>         0.5349
     21 O3          0.4114    2.3660   -8.8210 O.2       1 <0>        -0.5111
     22 C16         2.3520    3.5865   -8.2607 C.3       1 <0>        -0.1300
     23 S2          1.8101    4.6503   -9.6264 S.3       1 <0>        -0.1851
     24 C17         3.0730    5.9507   -9.6975 C.3       1 <0>        -0.1402
     25 H1          1.0039    1.9031    0.0027 H         1 <0>         0.0589
     26 H2         -0.5459    1.8868   -0.8726 H         1 <0>         0.0578
     27 H3         -0.5289    1.8773    0.9072 H         1 <0>         0.0640
     28 H4          0.2319   -0.1594    2.1383 H         1 <0>         0.0642
     29 H5          0.7568   -1.6008    1.2356 H         1 <0>         0.0588
     30 H6          1.7647   -0.1336    1.2338 H         1 <0>         0.0594
     31 H7         -1.9605   -0.1726   -0.8702 H         1 <0>         0.0609
     32 H8         -1.4185   -1.6235    0.0069 H         1 <0>         0.0612
     33 H9         -1.9435   -0.1821    0.9097 H         1 <0>         0.0634
     34 H10        -0.9938   -1.5568   -1.9713 H         1 <0>         0.1379
     35 H11         0.1588   -2.3512   -3.9970 H         1 <0>         0.1391
     36 H12         3.7024   -0.3141   -2.7796 H         1 <0>         0.1385
     37 H13         2.5473    0.4872   -0.7580 H         1 <0>         0.1321
     38 H14         1.7479   -1.0719   -8.0578 H         1 <0>         0.0850
     39 H15         0.7735   -1.7283   -6.7167 H         1 <0>         0.1063
     40 H16        -0.1169    0.4422   -7.7429 H         1 <0>         0.1095
     41 H17         0.1510    0.4943   -5.9809 H         1 <0>         0.0758
     42 H18         3.3839    2.4390   -6.5569 H         1 <0>         0.0987
     43 H19         2.4094    1.7825   -5.2158 H         1 <0>         0.0801
     44 H20         4.2688    0.2735   -5.5247 H         1 <0>         0.1066
     45 H21         4.0066    0.2217   -7.2875 H         1 <0>         0.0846
     46 H22         2.3935    4.1694   -7.3405 H         1 <0>         0.1106
     47 H23         3.3414    3.1865   -8.4823 H         1 <0>         0.1115
     48 H24         3.0993    6.4839   -8.7472 H         1 <0>         0.0770
     49 H25         4.0472    5.5009   -9.8889 H         1 <0>         0.0774
     50 H26         2.8312    6.6485  -10.4991 H         1 <0>         0.1072
@<TRIPOS>BOND
     1    1    2 1
     2    1   25 1
     3    1   26 1
     4    1   27 1
     5    2    3 1
     6    2    4 1
     7    2    5 1
     8    3   28 1
     9    3   29 1
    10    3   30 1
    11    4   31 1
    12    4   32 1
    13    4   33 1
    14    5   10 ar
    15    5    6 ar
    16    6    7 ar
    17    6   34 1
    18    7    8 ar
    19    7   35 1
    20    8    9 ar
    21    8   11 1
    22    9   10 ar
    23    9   36 1
    24   10   37 1
    25   11   12 2
    26   11   13 2
    27   11   14 1
    28   14   19 1
    29   14   15 1
    30   15   16 1
    31   15   38 1
    32   15   39 1
    33   16   17 1
    34   16   40 1
    35   16   41 1
    36   17   18 1
    37   17   20 am
    38   18   19 1
    39   18   42 1
    40   18   43 1
    41   19   44 1
    42   19   45 1
    43   20   21 2
    44   20   22 1
    45   22   23 1
    46   22   46 1
    47   22   47 1
    48   23   24 1
    49   24   48 1
    50   24   49 1
    51   24   50 1
@<TRIPOS>MOLECULE
ZINC65594824
   45    46     0     0     0
SMALL
USER_CHARGES

@<TRIPOS>ATOM
      1 C1          0.2991    0.8458    0.4821 C.3       1 <0>        -0.1667
      2 C2         -0.2915   -0.5097    0.0885 C.3       1 <0>         0.1130
      3 N1          0.4089   -1.0235   -1.0912 N.am      1 <0>        -0.6067
      4 C3          1.5976   -1.8642   -0.9289 C.3       1 <0>         0.0994
      5 C4          1.1713   -3.3248   -0.7685 C.3       1 <0>        -0.1756
      6 C5         -0.0404   -0.7229   -2.3257 C.2       1 <0>         0.5165
      7 O1         -0.9695    0.0446   -2.4627 O.2       1 <0>        -0.5221
      8 C6          0.6117   -1.3402   -3.5360 C.3       1 <0>         0.1152
      9 H1          0.9433   -2.3448   -3.2736 H         1 <0>         0.1121
     10 C7          1.8539   -0.4946   -3.9100 C.3       1 <0>        -0.0610
     11 S1          1.7492   -0.5716   -5.7538 S.3       1 <0>        -0.2529
     12 C8         -0.0887   -0.7294   -5.8504 C.3       1 <0>         0.1567
     13 N2         -0.3809   -1.4434   -4.5923 N.am      1 <0>        -0.5981
     14 C9         -1.5131   -2.1571   -4.4339 C.2       1 <0>         0.5654
     15 O2         -1.7255   -2.7363   -3.3850 O.2       1 <0>        -0.5202
     16 C10        -2.4883   -2.2354   -5.5244 C.2       1 <0>        -0.1943
     17 C11        -3.6214   -2.9496   -5.3659 C.2       1 <0>        -0.0225
     18 C12        -4.6001   -3.0282   -6.4604 C.ar      1 <0>        -0.0293
     19 C13        -4.3589   -2.3702   -7.6684 C.ar      1 <0>        -0.1009
     20 C14        -5.2808   -2.4481   -8.6918 C.ar      1 <0>        -0.0900
     21 C15        -6.4488   -3.1758   -8.5315 C.ar      1 <0>        -0.1064
     22 C16        -6.7073   -3.8335   -7.3455 C.ar      1 <0>        -0.0703
     23 C17        -5.7869   -3.7737   -6.3001 C.ar      1 <0>        -0.0039
     24 C18        -6.0472   -4.4594   -5.0702 C.1       1 <0>         0.2435
     25 N3         -6.2537   -5.0033   -4.0945 N.1       1 <0>        -0.3981
     26 H2          1.3583    0.7279    0.7110 H         1 <0>         0.0559
     27 H3          0.1818    1.5469   -0.3442 H         1 <0>         0.0587
     28 H4         -0.2220    1.2281    1.3598 H         1 <0>         0.0676
     29 H5         -0.1742   -1.2108    0.9148 H         1 <0>         0.0785
     30 H6         -1.3506   -0.3918   -0.1404 H         1 <0>         0.0823
     31 H7          2.2348   -1.7661   -1.8078 H         1 <0>         0.0767
     32 H8          2.1487   -1.5472   -0.0435 H         1 <0>         0.0854
     33 H9          2.0558   -3.9503   -0.6477 H         1 <0>         0.0703
     34 H10         0.5342   -3.4229    0.1105 H         1 <0>         0.0618
     35 H11         0.6202   -3.6418   -1.6539 H         1 <0>         0.0620
     36 H12         1.7587    0.5299   -3.5502 H         1 <0>         0.1094
     37 H13         2.7717   -0.9562   -3.5456 H         1 <0>         0.1337
     38 H14        -0.5661    0.2504   -5.8634 H         1 <0>         0.1048
     39 H15        -0.3864   -1.3201   -6.7168 H         1 <0>         0.1241
     40 H16        -2.2999   -1.7213   -6.4554 H         1 <0>         0.1373
     41 H17        -3.8098   -3.4637   -4.4350 H         1 <0>         0.1360
     42 H18        -3.4512   -1.8002   -7.8012 H         1 <0>         0.1381
     43 H19        -5.0908   -1.9379   -9.6245 H         1 <0>         0.1372
     44 H20        -7.1626   -3.2287   -9.3402 H         1 <0>         0.1387
     45 H21        -7.6205   -4.3981   -7.2292 H         1 <0>         0.1388
@<TRIPOS>BOND
     1    1    2 1
     2    1   26 1
     3    1   27 1
     4    1   28 1
     5    2    3 1
     6    2   29 1
     7    2   30 1
     8    3    4 1
     9    3    6 am
    10    4    5 1
    11    4   31 1
    12    4   32 1
    13    5   33 1
    14    5   34 1
    15    5   35 1
    16    6    7 2
    17    6    8 1
    18    8    9 1
    19    8   13 1
    20    8   10 1
    21   10   11 1
    22   10   36 1
    23   10   37 1
    24   11   12 1
    25   12   13 1
    26   12   38 1
    27   12   39 1
    28   13   14 am
    29   14   15 2
    30   14   16 1
    31   16   17 2
    32   16   40 1
    33   17   18 1
    34   17   41 1
    35   18   23 ar
    36   18   19 ar
    37   19   20 ar
    38   19   42 1
    39   20   21 ar
    40   20   43 1
    41   21   22 ar
    42   21   44 1
    43   22   23 ar
    44   22   45 1
    45   23   24 1
    46   24   25 3
@<TRIPOS>MOLECULE
ZINC05456008
   44    46     0     0     0
SMALL
USER_CHARGES
[phenyl-(1-piperidylcarbonyl)methyl] pyridine-2-carboxylate
@<TRIPOS>ATOM
      1 C1         -0.8645    9.4130   -3.6452 C.ar      1 <0>        -0.1048
      2 C2         -0.0645    9.7083   -2.5573 C.ar      1 <0>        -0.1201
      3 C3         -0.2476    9.0377   -1.3625 C.ar      1 <0>        -0.0963
      4 C4         -1.2313    8.0724   -1.2553 C.ar      1 <0>        -0.1189
      5 C5         -2.0281    7.7737   -2.3447 C.ar      1 <0>        -0.0839
      6 C6         -1.8479    8.4474   -3.5383 C.ar      1 <0>        -0.1204
      7 C7         -1.4308    7.3413    0.0472 C.3       1 <0>         0.1159
      8 H1         -0.5819    7.5309    0.7041 H         1 <0>         0.1139
      9 C8         -2.6953    7.8274    0.7075 C.2       1 <0>         0.5280
     10 O1         -3.7226    7.1935    0.5908 O.2       1 <0>        -0.5070
     11 N1         -2.6845    8.9666    1.4276 N.am      1 <0>        -0.6053
     12 C9         -1.4730    9.7947    1.5004 C.3       1 <0>         0.0927
     13 C10        -1.8371   11.2301    1.0918 C.3       1 <0>        -0.1336
     14 C11        -2.9906   11.7263    1.9667 C.3       1 <0>        -0.1210
     15 C12        -4.2174   10.8378    1.7482 C.3       1 <0>        -0.1352
     16 C13        -3.8820    9.4008    2.1597 C.3       1 <0>         0.1118
     17 O2         -1.5357    5.9159   -0.2089 O.3       1 <0>        -0.2980
     18 C14        -0.3910    5.2065   -0.1958 C.2       1 <0>         0.5257
     19 O3          0.6657    5.7630    0.0234 O.2       1 <0>        -0.4925
     20 C15        -0.4210    3.7479   -0.4489 C.ar      1 <0>         0.0895
     21 C16         0.7668    3.0194   -0.4340 C.ar      1 <0>        -0.1036
     22 C17         0.7226    1.6549   -0.6726 C.ar      1 <0>        -0.0826
     23 C18        -0.5082    1.0661   -0.9178 C.ar      1 <0>        -0.1371
     24 C19        -1.6490    1.8529   -0.9226 C.ar      1 <0>         0.0985
     25 N2         -1.5792    3.1450   -0.6884 N.ar      1 <0>        -0.4310
     26 H2         -0.7215    9.9370   -4.5787 H         1 <0>         0.1264
     27 H3          0.7038   10.4627   -2.6409 H         1 <0>         0.1286
     28 H4          0.3777    9.2681   -0.5126 H         1 <0>         0.1276
     29 H5         -2.7937    7.0164   -2.2623 H         1 <0>         0.1315
     30 H6         -2.4732    8.2169   -4.3882 H         1 <0>         0.1275
     31 H7         -1.0870    9.7887    2.5198 H         1 <0>         0.0754
     32 H8         -0.7189    9.3996    0.8197 H         1 <0>         0.0871
     33 H9         -2.1409   11.2471    0.0452 H         1 <0>         0.0701
     34 H10        -0.9710   11.8773    1.2303 H         1 <0>         0.0783
     35 H11        -3.2342   12.7542    1.6978 H         1 <0>         0.0681
     36 H12        -2.6949   11.6857    3.0150 H         1 <0>         0.0659
     37 H13        -4.4988   10.8585    0.6954 H         1 <0>         0.0677
     38 H14        -5.0456   11.2058    2.3539 H         1 <0>         0.0780
     39 H15        -4.7180    8.7458    1.9141 H         1 <0>         0.0952
     40 H16        -3.6885    9.3634    3.2318 H         1 <0>         0.0716
     41 H17         1.7085    3.5112   -0.2397 H         1 <0>         0.1519
     42 H18         1.6265    1.0639   -0.6680 H         1 <0>         0.1488
     43 H19        -0.5768    0.0051   -1.1078 H         1 <0>         0.1468
     44 H20        -2.6089    1.3980   -1.1177 H         1 <0>         0.1690
@<TRIPOS>BOND
     1    1    6 ar
     2    1    2 ar
     3    1   26 1
     4    2    3 ar
     5    2   27 1
     6    3    4 ar
     7    3   28 1
     8    4    5 ar
     9    4    7 1
    10    5    6 ar
    11    5   29 1
    12    6   30 1
    13    7    8 1
    14    7    9 1
    15    7   17 1
    16    9   10 2
    17    9   11 am
    18   11   16 1
    19   11   12 1
    20   12   13 1
    21   12   31 1
    22   12   32 1
    23   13   14 1
    24   13   33 1
    25   13   34 1
    26   14   15 1
    27   14   35 1
    28   14   36 1
    29   15   16 1
    30   15   37 1
    31   15   38 1
    32   16   39 1
    33   16   40 1
    34   17   18 1
    35   18   19 2
    36   18   20 1
    37   20   25 ar
    38   20   21 ar
    39   21   22 ar
    40   21   41 1
    41   22   23 ar
    42   22   42 1
    43   23   24 ar
    44   23   43 1
    45   24   25 ar
    46   24   44 1
@<TRIPOS>MOLECULE
ZINC24502872
   39    41     0     0     0
SMALL
USER_CHARGES
[(2R)-tetrahydrofuran-2-yl]methyl 5-chloro-3-methyl-1-phenyl-pyrazole-4-carboxylate
@<TRIPOS>ATOM
      1 C1          5.7147    4.3031   -3.1670 C.3       1 <0>        -0.0827
      2 C2          5.9065    5.0222   -1.8566 C.2       1 <0>         0.1375
      3 C3          4.9084    5.2512   -0.8811 C.2       1 <0>        -0.2357
      4 C4          5.5072    5.9368    0.1611 C.2       1 <0>         0.1712
      5 N1          6.7995    6.1180   -0.1688 N.pl3     1 <0>        -0.2955
      6 N2          7.0211    5.5447   -1.4258 N.2       1 <0>        -0.2595
      7 C5          7.7612    6.7702    0.6150 C.ar      1 <0>         0.1297
      8 C6          7.4006    7.8627    1.3922 C.ar      1 <0>        -0.1223
      9 C7          8.3492    8.4995    2.1683 C.ar      1 <0>        -0.0976
     10 C8          9.6595    8.0575    2.1623 C.ar      1 <0>        -0.1093
     11 C9         10.0229    6.9732    1.3848 C.ar      1 <0>        -0.1013
     12 C10         9.0775    6.3285    0.6114 C.ar      1 <0>        -0.0968
     13 Cl1         4.7346    6.4661    1.6228 Cl        1 <0>         0.0268
     14 C11         3.4996    4.8335   -0.9573 C.2       1 <0>         0.5526
     15 O1          2.6716    5.5750   -1.4491 O.2       1 <0>        -0.4857
     16 O2          3.1274    3.6286   -0.4818 O.3       1 <0>        -0.3382
     17 C12         1.7213    3.2829   -0.5901 C.3       1 <0>         0.0638
     18 C13         1.4920    1.8892   -0.0020 C.3       1 <0>         0.0716
     19 H1          1.9814    1.8650    0.9828 H         1 <0>         0.0860
     20 C14        -0.0189    1.5439    0.0105 C.3       1 <0>        -0.1445
     21 C15         0.0021   -0.0041    0.0020 C.3       1 <0>        -0.1531
     22 C16         1.3978   -0.3599   -0.5457 C.3       1 <0>         0.0466
     23 O3          2.0620    0.8760   -0.8584 O.3       1 <0>        -0.3673
     24 H2          4.6688    3.9738   -3.2549 H         1 <0>         0.0820
     25 H3          6.3793    3.4274   -3.2054 H         1 <0>         0.0934
     26 H4          5.9560    4.9832   -3.9972 H         1 <0>         0.0920
     27 H5          6.3785    8.2116    1.3934 H         1 <0>         0.1329
     28 H6          8.0684    9.3464    2.7768 H         1 <0>         0.1374
     29 H7         10.4005    8.5601    2.7663 H         1 <0>         0.1340
     30 H8         11.0469    6.6299    1.3827 H         1 <0>         0.1374
     31 H9          9.3620    5.4819    0.0041 H         1 <0>         0.1379
     32 H10         1.1192    4.0182   -0.0362 H         1 <0>         0.0900
     33 H11         1.4230    3.2877   -1.6489 H         1 <0>         0.0839
     34 H12        -0.4833    1.9629    0.9154 H         1 <0>         0.0869
     35 H13        -0.5004    1.9725   -0.8808 H         1 <0>         0.0839
     36 H14        -0.1475   -0.3784    1.0255 H         1 <0>         0.0795
     37 H15        -0.8037   -0.3782   -0.6467 H         1 <0>         0.0820
     38 H16         1.9599   -0.9179    0.2176 H         1 <0>         0.0623
     39 H17         1.2905   -0.9797   -1.4481 H         1 <0>         0.0880
@<TRIPOS>BOND
     1    1    2 1
     2    1   24 1
     3    1   25 1
     4    1   26 1
     5    2    6 2
     6    2    3 1
     7    3    4 2
     8    3   14 1
     9    4    5 1
    10    4   13 1
    11    5    6 1
    12    5    7 1
    13    7   12 ar
    14    7    8 ar
    15    8    9 ar
    16    8   27 1
    17    9   10 ar
    18    9   28 1
    19   10   11 ar
    20   10   29 1
    21   11   12 ar
    22   11   30 1
    23   12   31 1
    24   14   15 2
    25   14   16 1
    26   16   17 1
    27   17   18 1
    28   17   32 1
    29   17   33 1
    30   18   19 1
    31   18   23 1
    32   18   20 1
    33   20   21 1
    34   20   34 1
    35   20   35 1
    36   21   22 1
    37   21   36 1
    38   21   37 1
    39   22   23 1
    40   22   38 1
    41   22   39 1
@<TRIPOS>MOLECULE
ZINC40436447
   34    34     0     0     0
SMALL
USER_CHARGES

@<TRIPOS>ATOM
      1 C1          4.1465   -1.6664   -2.7260 C.3       1 <0>        -0.1525
      2 C2          3.7611   -2.0892   -1.3070 C.3       1 <0>        -0.0124
      3 H1          2.8459   -2.6804   -1.3400 H         1 <0>         0.1211
      4 C3          3.5330   -0.8438   -0.4480 C.3       1 <0>         0.1279
      5 N1          2.3798   -0.1007   -0.9619 N.pl3     1 <0>        -0.9935
      6 C4          1.0207   -0.5495   -0.6493 C.3       1 <0>         0.0833
      7 S1          2.6125    1.2467   -1.8961 S.o2      1 <0>         2.6971
      8 O1          3.9401    1.1693   -2.3968 O.2       1 <0>        -0.9472
      9 O2          1.4811    1.3494   -2.7497 O.2       1 <0>        -0.9359
     10 C5          2.5604    2.6416   -0.8208 C.ar      1 <0>        -0.7093
     11 C6          3.6992    3.3949   -0.6100 C.ar      1 <0>         0.0432
     12 C7          3.6588    4.4900    0.2340 C.ar      1 <0>        -0.1509
     13 C8          2.4784    4.8334    0.8689 C.ar      1 <0>         0.0043
     14 C9          1.3375    4.0832    0.6606 C.ar      1 <0>        -0.2202
     15 C10         1.3746    2.9875   -0.1897 C.ar      1 <0>         0.2392
     16 O3          0.2519    2.2507   -0.3997 O.3       1 <0>        -0.3052
     17 C11        -0.9562    2.7243    0.1987 C.3       1 <0>         0.0213
     18 Br1         5.2192    5.5190    0.5210 Br        1 <0>        -0.0329
     19 C12         4.8455   -2.8958   -0.7236 C.1       1 <0>         0.2098
     20 N2          5.6824   -3.5182   -0.2734 N.1       1 <0>        -0.4232
     21 H2          3.3064   -1.1522   -3.1927 H         1 <0>         0.0642
     22 H3          5.0053   -0.9964   -2.6848 H         1 <0>         0.0847
     23 H4          4.4025   -2.5496   -3.3113 H         1 <0>         0.0700
     24 H5          3.3423   -1.1432    0.5826 H         1 <0>         0.0915
     25 H6          4.4191   -0.2102   -0.4843 H         1 <0>         0.0994
     26 H7          0.6845   -0.0753    0.2728 H         1 <0>         0.0596
     27 H8          0.3509   -0.2748   -1.4642 H         1 <0>         0.0886
     28 H9          1.0154   -1.6322   -0.5240 H         1 <0>         0.0789
     29 H10         4.6217    3.1284   -1.1044 H         1 <0>         0.1606
     30 H11         2.4491    5.6884    1.5281 H         1 <0>         0.1457
     31 H12         0.4164    4.3513    1.1567 H         1 <0>         0.1489
     32 H13        -1.2238    3.6874   -0.2360 H         1 <0>         0.0664
     33 H14        -1.7573    2.0080    0.0161 H         1 <0>         0.1135
     34 H15        -0.8091    2.8388    1.2727 H         1 <0>         0.0644
@<TRIPOS>BOND
     1    1    2 1
     2    1   21 1
     3    1   22 1
     4    1   23 1
     5    2    3 1
     6    2    4 1
     7    2   19 1
     8    4    5 1
     9    4   24 1
    10    4   25 1
    11    5    6 1
    12    5    7 1
    13    6   26 1
    14    6   27 1
    15    6   28 1
    16    7    8 2
    17    7    9 2
    18    7   10 1
    19   10   15 ar
    20   10   11 ar
    21   11   12 ar
    22   11   29 1
    23   12   13 ar
    24   12   18 1
    25   13   14 ar
    26   13   30 1
    27   14   15 ar
    28   14   31 1
    29   15   16 1
    30   16   17 1
    31   17   32 1
    32   17   33 1
    33   17   34 1
    34   19   20 3
@<TRIPOS>MOLECULE
ZINC57954111
   45    47     0     0     0
SMALL
USER_CHARGES

@<TRIPOS>ATOM
      1 C1         -0.0187    1.5258    0.0104 C.3       1 <0>        -0.1513
      2 C2          0.0021   -0.0041    0.0020 C.3       1 <0>        -0.0385
      3 C3          0.7074   -0.4901   -1.2379 C.2       1 <0>        -0.1523
      4 C4          2.0135   -0.7541   -1.4029 C.2       1 <0>        -0.0921
      5 C5          2.4845   -1.2178   -2.6945 C.2       1 <0>        -0.2433
      6 C6          1.4886   -1.3487   -3.6791 C.2       1 <0>         0.1039
      7 S1          0.0065   -0.8598   -2.8349 S.3       1 <0>         0.1387
      8 N1          1.7677   -1.7637   -4.9112 N.2       1 <0>        -0.4913
      9 C7          2.9895   -2.0688   -5.2577 C.2       1 <0>         0.3946
     10 N2          4.0155   -1.9730   -4.3735 N.am      1 <0>        -0.5190
     11 C8          3.8131   -1.5604   -3.1084 C.2       1 <0>         0.5581
     12 O1          4.7451   -1.4798   -2.3269 O.2       1 <0>        -0.5225
     13 C9          5.3702   -2.3260   -4.8051 C.3       1 <0>         0.0513
     14 C10         6.0566   -1.1028   -5.3562 C.2       1 <0>         0.4177
     15 O2          5.4714   -0.0402   -5.3856 O.2       1 <0>        -0.4602
     16 C11         7.4299   -1.1966   -5.8564 C.2       1 <0>        -0.2703
     17 C12         8.2759   -2.3967   -5.9008 C.2       1 <0>        -0.1545
     18 C13         9.4479   -2.0138   -6.4345 C.2       1 <0>         0.0126
     19 N3          9.3950   -0.6806   -6.7223 N.pl3     1 <0>        -0.4311
     20 C14         8.1939   -0.1754   -6.3892 C.2       1 <0>         0.1215
     21 C15         7.7578    1.2566   -6.5636 C.3       1 <0>        -0.0991
     22 C16        10.4901    0.0902   -7.3163 C.3       1 <0>         0.0889
     23 C17        10.3702    0.0547   -8.8412 C.3       1 <0>        -0.1705
     24 C18        10.6328   -2.9130   -6.6763 C.3       1 <0>        -0.0868
     25 H1          1.0039    1.9031    0.0027 H         1 <0>         0.0596
     26 H2         -0.5459    1.8868   -0.8726 H         1 <0>         0.0590
     27 H3         -0.5289    1.8773    0.9072 H         1 <0>         0.0661
     28 H4          0.5293   -0.3651    0.8851 H         1 <0>         0.0900
     29 H5         -1.0205   -0.3814    0.0098 H         1 <0>         0.0829
     30 H6          2.7053   -0.6225   -0.5841 H         1 <0>         0.1422
     31 H7          3.1872   -2.4036   -6.2653 H         1 <0>         0.2151
     32 H8          5.9349   -2.7072   -3.9543 H         1 <0>         0.1358
     33 H9          5.3170   -3.0922   -5.5785 H         1 <0>         0.1321
     34 H10         8.0089   -3.3895   -5.5700 H         1 <0>         0.1493
     35 H11         8.0094    1.8246   -5.6680 H         1 <0>         0.0802
     36 H12         8.2683    1.6896   -7.4238 H         1 <0>         0.0674
     37 H13         6.6804    1.2911   -6.7251 H         1 <0>         0.0986
     38 H14        10.4363    1.1228   -6.9716 H         1 <0>         0.0933
     39 H15        11.4441   -0.3437   -7.0166 H         1 <0>         0.0955
     40 H16        10.4240   -0.9780   -9.1859 H         1 <0>         0.0652
     41 H17         9.4162    0.4885   -9.1408 H         1 <0>         0.0640
     42 H18        11.1850    0.6281   -9.2832 H         1 <0>         0.0786
     43 H19        10.5621   -3.3469   -7.6737 H         1 <0>         0.0732
     44 H20        11.5518   -2.3323   -6.5969 H         1 <0>         0.0642
     45 H21        10.6415   -3.7103   -5.9330 H         1 <0>         0.0829
@<TRIPOS>BOND
     1    1    2 1
     2    1   25 1
     3    1   26 1
     4    1   27 1
     5    2    3 1
     6    2   28 1
     7    2   29 1
     8    3    7 1
     9    3    4 2
    10    4    5 1
    11    4   30 1
    12    5   11 1
    13    5    6 2
    14    6    7 1
    15    6    8 1
    16    8    9 2
    17    9   10 1
    18    9   31 1
    19   10   11 am
    20   10   13 1
    21   11   12 2
    22   13   14 1
    23   13   32 1
    24   13   33 1
    25   14   15 2
    26   14   16 1
    27   16   20 2
    28   16   17 1
    29   17   18 2
    30   17   34 1
    31   18   19 1
    32   18   24 1
    33   19   20 1
    34   19   22 1
    35   20   21 1
    36   21   35 1
    37   21   36 1
    38   21   37 1
    39   22   23 1
    40   22   38 1
    41   22   39 1
    42   23   40 1
    43   23   41 1
    44   23   42 1
    45   24   43 1
    46   24   44 1
    47   24   45 1
@<TRIPOS>MOLECULE
ZINC66297962
   32    34     0     0     0
SMALL
USER_CHARGES

@<TRIPOS>ATOM
      1 C1         -0.0162    1.3439    0.0094 C.2       1 <0>        -0.2199
      2 C2          1.3244    1.7749   -0.0011 C.2       1 <0>        -0.1272
      3 C3          2.0957    0.6550   -0.0144 C.2       1 <0>         0.0243
      4 O1          1.2790   -0.4165   -0.0124 O.3       1 <0>        -0.1507
      5 C4          0.0021   -0.0041    0.0020 C.2       1 <0>         0.0037
      6 C5          3.5725    0.6195   -0.0292 C.2       1 <0>         0.3355
      7 N1          4.3322   -0.4926   -0.0478 N.2       1 <0>        -0.5196
      8 C6          5.5936   -0.1705   -0.0568 C.2       1 <0>         0.3129
      9 O2          5.6927    1.1652   -0.0443 O.3       1 <0>        -0.0874
     10 N2          4.3644    1.6666   -0.0320 N.2       1 <0>        -0.3126
     11 C7          6.7487   -1.1382   -0.0770 C.3       1 <0>        -0.3894
     12 S1          7.1958   -1.5103   -1.7952 S.o       1 <0>         1.2791
     13 O3          6.1052   -2.1543   -2.4396 O.2       1 <0>        -0.7961
     14 C8          8.5814   -2.6715   -1.6465 C.3       1 <0>        -0.4159
     15 C9          9.0555   -3.0666   -3.0214 C.ar      1 <0>        -0.0747
     16 C10         8.4997   -4.1623   -3.6554 C.ar      1 <0>        -0.0659
     17 C11         8.9334   -4.5256   -4.9160 C.ar      1 <0>        -0.1422
     18 C12         9.9254   -3.7921   -5.5451 C.ar      1 <0>         0.1186
     19 C13        10.4816   -2.6949   -4.9106 C.ar      1 <0>        -0.1418
     20 C14        10.0425   -2.3294   -3.6507 C.ar      1 <0>        -0.0054
     21 Cl1        10.7351   -0.9498   -2.8565 Cl        1 <0>        -0.0434
     22 F1         10.3504   -4.1476   -6.7773 F         1 <0>        -0.1278
     23 H1         -0.8931    1.9741    0.0252 H         1 <0>         0.1630
     24 H2          1.6727    2.7972    0.0011 H         1 <0>         0.1629
     25 H3         -0.8668   -0.6456    0.0072 H         1 <0>         0.2170
     26 H4          7.6037   -0.6942    0.4329 H         1 <0>         0.1633
     27 H5          6.4605   -2.0586    0.4309 H         1 <0>         0.1400
     28 H6          9.3979   -2.1953   -1.1037 H         1 <0>         0.1416
     29 H7          8.2548   -3.5597   -1.1057 H         1 <0>         0.1136
     30 H8          7.7263   -4.7347   -3.1649 H         1 <0>         0.1441
     31 H9          8.4990   -5.3819   -5.4106 H         1 <0>         0.1470
     32 H10        11.2556   -2.1225   -5.4002 H         1 <0>         0.1534
@<TRIPOS>BOND
     1    1    5 2
     2    1    2 1
     3    1   23 1
     4    2    3 2
     5    2   24 1
     6    3    4 1
     7    3    6 1
     8    4    5 1
     9    5   25 1
    10    6   10 2
    11    6    7 1
    12    7    8 2
    13    8    9 1
    14    8   11 1
    15    9   10 1
    16   11   12 1
    17   11   26 1
    18   11   27 1
    19   12   13 2
    20   12   14 1
    21   14   15 1
    22   14   28 1
    23   14   29 1
    24   15   20 ar
    25   15   16 ar
    26   16   17 ar
    27   16   30 1
    28   17   18 ar
    29   17   31 1
    30   18   19 ar
    31   18   22 1
    32   19   20 ar
    33   19   32 1
    34   20   21 1
@<TRIPOS>MOLECULE
ZINC67522004
   45    47     0     0     0
SMALL
USER_CHARGES

@<TRIPOS>ATOM
      1 C1         -0.0187    1.5258    0.0104 C.3       1 <0>        -0.1516
      2 C2          0.0021   -0.0041    0.0020 C.3       1 <0>         0.0549
      3 O1          0.6709   -0.4649   -1.1737 O.3       1 <0>        -0.3782
      4 C3          0.7457   -1.8880   -1.2798 C.3       1 <0>         0.0790
      5 H1         -0.1177   -2.3354   -0.7874 H         1 <0>         0.0633
      6 C4          0.7571   -2.2903   -2.7563 C.3       1 <0>        -0.1179
      7 C5          0.8040   -3.8157   -2.8709 C.3       1 <0>        -0.1329
      8 C6          2.0900   -4.3333   -2.2188 C.3       1 <0>         0.1025
      9 N1          2.1573   -3.8294   -0.8404 N.am      1 <0>        -0.6142
     10 C7          2.0306   -2.3839   -0.6090 C.3       1 <0>         0.0929
     11 C8          2.3314   -4.6770    0.1929 C.2       1 <0>         0.5207
     12 O2          2.3853   -4.2486    1.3263 O.2       1 <0>        -0.5161
     13 C9          2.4593   -6.1571   -0.0600 C.3       1 <0>        -0.0695
     14 C10         2.6443   -6.8766    1.2512 C.2       1 <0>         0.0762
     15 C11         1.8069   -7.8905    1.5951 C.2       1 <0>        -0.2022
     16 S1          2.4787   -8.3492    3.1878 S.3       1 <0>         0.0642
     17 C12         3.7989   -7.1438    3.2230 C.2       1 <0>         0.1736
     18 N2          3.6176   -6.5285    2.0600 N.2       1 <0>        -0.4638
     19 C13         4.8149   -6.9019    4.2589 C.2       1 <0>         0.0538
     20 C14         4.9430   -7.5873    5.4295 C.2       1 <0>        -0.1519
     21 C15         6.0397   -7.0251    6.1102 C.2       1 <0>        -0.2126
     22 C16         6.5230   -6.0354    5.3327 C.2       1 <0>         0.0171
     23 O3          5.7850   -5.9674    4.2130 O.3       1 <0>        -0.1496
     24 C17         7.7005   -5.1548    5.6631 C.3       1 <0>        -0.0791
     25 H2          1.0039    1.9031    0.0027 H         1 <0>         0.0638
     26 H3         -0.5459    1.8868   -0.8726 H         1 <0>         0.0633
     27 H4         -0.5289    1.8773    0.9072 H         1 <0>         0.0719
     28 H5          0.5293   -0.3651    0.8851 H         1 <0>         0.0499
     29 H6         -1.0205   -0.3814    0.0098 H         1 <0>         0.0489
     30 H7         -0.1451   -1.9173   -3.2412 H         1 <0>         0.0747
     31 H8          1.6338   -1.8624   -3.2425 H         1 <0>         0.0752
     32 H9         -0.0596   -4.2454   -2.3634 H         1 <0>         0.0697
     33 H10         0.7885   -4.1022   -3.9224 H         1 <0>         0.0863
     34 H11         2.0818   -5.4233   -2.2094 H         1 <0>         0.0888
     35 H12         2.9535   -3.9772   -2.7806 H         1 <0>         0.0750
     36 H13         2.8896   -1.8688   -1.0391 H         1 <0>         0.0757
     37 H14         1.9829   -2.1876    0.4621 H         1 <0>         0.0920
     38 H15         1.5563   -6.5213   -0.5500 H         1 <0>         0.1116
     39 H16         3.3208   -6.3431   -0.7012 H         1 <0>         0.1117
     40 H17         0.9677   -8.3044    1.0558 H         1 <0>         0.2042
     41 H18         4.3233   -8.4039    5.7694 H         1 <0>         0.1575
     42 H19         6.4214   -7.3290    7.0737 H         1 <0>         0.1589
     43 H20         8.6140   -5.6116    5.2824 H         1 <0>         0.0871
     44 H21         7.5637   -4.1769    5.2015 H         1 <0>         0.0805
     45 H22         7.7755   -5.0389    6.7443 H         1 <0>         0.0944
@<TRIPOS>BOND
     1    1    2 1
     2    1   25 1
     3    1   26 1
     4    1   27 1
     5    2    3 1
     6    2   28 1
     7    2   29 1
     8    3    4 1
     9    4    5 1
    10    4   10 1
    11    4    6 1
    12    6    7 1
    13    6   30 1
    14    6   31 1
    15    7    8 1
    16    7   32 1
    17    7   33 1
    18    8    9 1
    19    8   34 1
    20    8   35 1
    21    9   10 1
    22    9   11 am
    23   10   36 1
    24   10   37 1
    25   11   12 2
    26   11   13 1
    27   13   14 1
    28   13   38 1
    29   13   39 1
    30   14   18 1
    31   14   15 2
    32   15   16 1
    33   15   40 1
    34   16   17 1
    35   17   18 2
    36   17   19 1
    37   19   23 1
    38   19   20 2
    39   20   21 1
    40   20   41 1
    41   21   22 2
    42   21   42 1
    43   22   23 1
    44   22   24 1
    45   24   43 1
    46   24   44 1
    47   24   45 1
@<TRIPOS>MOLECULE
ZINC12053902
   53    55     0     0     0
SMALL
USER_CHARGES
(Z)-2-fluoro-1-[(3S)-3-(3-oxo-3-pyrrolidin-1-yl-propyl)-1-piperidyl]-3-phenyl-prop-2-en-1-one
@<TRIPOS>ATOM
      1 C1          0.0168    1.4613    0.0896 C.ar      1 <0>        -0.1030
      2 C2          0.0199    0.1435   -0.3334 C.ar      1 <0>        -0.1263
      3 C3          1.2072   -0.5515   -0.4270 C.ar      1 <0>        -0.0886
      4 C4          2.4100    0.0785   -0.0933 C.ar      1 <0>        -0.0884
      5 C5          2.3987    1.4101    0.3333 C.ar      1 <0>        -0.1224
      6 C6          1.2032    2.0918    0.4217 C.ar      1 <0>        -0.1249
      7 C7          3.6819   -0.6565   -0.1900 C.2       1 <0>        -0.0413
      8 C8          4.8522   -0.0004   -0.0511 C.2       1 <0>        -0.0124
      9 C9          6.1191   -0.7054   -0.2737 C.2       1 <0>         0.5543
     10 O1          6.1224   -1.9092   -0.4515 O.2       1 <0>        -0.5241
     11 N1          7.2795   -0.0199   -0.2813 N.am      1 <0>        -0.6007
     12 C10         7.2810    1.4493   -0.2734 C.3       1 <0>         0.0629
     13 C11         8.1310    1.9479   -1.4463 C.3       1 <0>        -0.1340
     14 C12         9.5232    1.3175   -1.3663 C.3       1 <0>        -0.1169
     15 C13         9.4026   -0.2047   -1.4699 C.3       1 <0>        -0.1008
     16 H1          8.9168   -0.4680   -2.4094 H         1 <0>         0.0777
     17 C14         8.5670   -0.7276   -0.2916 C.3       1 <0>         0.1123
     18 C15        10.7973   -0.8319   -1.4228 C.3       1 <0>        -0.0965
     19 C16        10.6860   -2.3406   -1.6511 C.3       1 <0>        -0.1389
     20 C17        12.0598   -2.9584   -1.6048 C.2       1 <0>         0.5278
     21 O2         13.0321   -2.2607   -1.4084 O.2       1 <0>        -0.5393
     22 N2         12.2078   -4.2863   -1.7815 N.am      1 <0>        -0.6233
     23 C18        11.1195   -5.2455   -2.0204 C.3       1 <0>         0.0978
     24 C19        11.7593   -6.6450   -2.1364 C.3       1 <0>        -0.1331
     25 C20        13.1061   -6.4723   -1.3856 C.3       1 <0>        -0.1349
     26 C21        13.4872   -5.0185   -1.7609 C.3       1 <0>         0.1027
     27 F1          4.8575    1.3060    0.2932 F         1 <0>        -0.1144
     28 H2         -0.9167    1.9990    0.1652 H         1 <0>         0.1249
     29 H3         -0.9100   -0.3418   -0.5905 H         1 <0>         0.1275
     30 H4          1.2081   -1.5797   -0.7576 H         1 <0>         0.1292
     31 H5          3.3237    1.9036    0.5924 H         1 <0>         0.1588
     32 H6          1.1928    3.1202    0.7513 H         1 <0>         0.1266
     33 H7          3.6779   -1.7210   -0.3722 H         1 <0>         0.1618
     34 H8          6.2602    1.8164   -0.3799 H         1 <0>         0.1240
     35 H9          7.7049    1.8093    0.6641 H         1 <0>         0.0718
     36 H10         7.6567    1.6643   -2.3858 H         1 <0>         0.0669
     37 H11         8.2196    3.0331   -1.3960 H         1 <0>         0.0793
     38 H12        10.1380    1.6896   -2.1859 H         1 <0>         0.0696
     39 H13         9.9871    1.5809   -0.4158 H         1 <0>         0.0673
     40 H14         9.0937   -0.5416    0.6444 H         1 <0>         0.0730
     41 H15         8.3950   -1.7974   -0.4101 H         1 <0>         0.0950
     42 H16        11.4202   -0.3915   -2.2014 H         1 <0>         0.0766
     43 H17        11.2474   -0.6442   -0.4480 H         1 <0>         0.0740
     44 H18        10.0631   -2.7810   -0.8725 H         1 <0>         0.0944
     45 H19        10.2359   -2.5283   -2.6260 H         1 <0>         0.0939
     46 H20        10.4174   -5.2248   -1.1869 H         1 <0>         0.0711
     47 H21        10.6040   -4.9977   -2.9483 H         1 <0>         0.0703
     48 H22        11.9306   -6.9095   -3.1798 H         1 <0>         0.0785
     49 H23        11.1370   -7.3929   -1.6450 H         1 <0>         0.0846
     50 H24        13.8511   -7.1785   -1.7523 H         1 <0>         0.0860
     51 H25        12.9700   -6.5750   -0.3091 H         1 <0>         0.0768
     52 H26        13.9559   -4.9910   -2.7446 H         1 <0>         0.0680
     53 H27        14.1551   -4.5941   -1.0113 H         1 <0>         0.0786
@<TRIPOS>BOND
     1    1    6 ar
     2    1    2 ar
     3    1   28 1
     4    2    3 ar
     5    2   29 1
     6    3    4 ar
     7    3   30 1
     8    4    5 ar
     9    4    7 1
    10    5    6 ar
    11    5   31 1
    12    6   32 1
    13    7    8 2
    14    7   33 1
    15    8    9 1
    16    8   27 1
    17    9   10 2
    18    9   11 am
    19   11   17 1
    20   11   12 1
    21   12   13 1
    22   12   34 1
    23   12   35 1
    24   13   14 1
    25   13   36 1
    26   13   37 1
    27   14   15 1
    28   14   38 1
    29   14   39 1
    30   15   16 1
    31   15   17 1
    32   15   18 1
    33   17   40 1
    34   17   41 1
    35   18   19 1
    36   18   42 1
    37   18   43 1
    38   19   20 1
    39   19   44 1
    40   19   45 1
    41   20   21 2
    42   20   22 am
    43   22   26 1
    44   22   23 1
    45   23   24 1
    46   23   46 1
    47   23   47 1
    48   24   25 1
    49   24   48 1
    50   24   49 1
    51   25   26 1
    52   25   50 1
    53   25   51 1
    54   26   52 1
    55   26   53 1
@<TRIPOS>MOLECULE
ZINC40154962
   36    39     0     0     0
SMALL
USER_CHARGES

@<TRIPOS>ATOM
      1 C1         -0.0184    1.5028    0.0103 C.3       1 <0>        -0.0666
      2 C2          0.0021   -0.0041    0.0020 C.2       1 <0>         0.0625
      3 N1         -1.0131   -0.8316    0.0019 N.2       1 <0>        -0.5078
      4 C3         -0.8336   -2.1374   -0.0059 C.2       1 <0>         0.0573
      5 C4          0.4492   -2.5821   -0.0139 C.2       1 <0>        -0.2203
      6 S1          1.3350   -1.0316   -0.0168 S.3       1 <0>         0.1155
      7 C5         -1.9989   -3.0929   -0.0056 C.3       1 <0>         0.0548
      8 C6         -2.8988   -2.7872    1.1639 C.2       1 <0>         0.1761
      9 N2         -3.9090   -1.9677    1.1624 N.2       1 <0>        -0.2546
     10 N3         -4.4515   -1.9506    2.3288 N.2       1 <0>        -0.2887
     11 C7         -3.7999   -2.7665    3.1222 C.2       1 <0>         0.1309
     12 O1         -2.8067   -3.3176    2.3993 O.3       1 <0>        -0.2057
     13 S2         -4.1615   -3.0875    4.8165 S.3       1 <0>         0.0621
     14 C8         -5.6045   -2.0442    5.1626 C.3       1 <0>        -0.0551
     15 C9         -6.0228   -2.2258    6.5990 C.2       1 <0>        -0.1057
     16 C10        -6.9076   -3.1766    6.9315 C.2       1 <0>        -0.1205
     17 S3         -7.0703   -2.9954    8.6974 S.3       1 <0>         0.0547
     18 C11        -5.9442   -1.6462    8.9406 C.ar      1 <0>        -0.1143
     19 C12        -5.4658   -1.3747    7.6401 C.ar      1 <0>        -0.0815
     20 C13        -4.5256   -0.3247    7.5171 C.ar      1 <0>        -0.0739
     21 C14        -4.1138    0.3710    8.6104 C.ar      1 <0>        -0.1170
     22 C15        -4.5961    0.0810    9.8794 C.ar      1 <0>        -0.0916
     23 C16        -5.5226   -0.9305   10.0403 C.ar      1 <0>        -0.0757
     24 H1          1.0042    1.8801    0.0026 H         1 <0>         0.0865
     25 H2         -0.5455    1.8639   -0.8728 H         1 <0>         0.0940
     26 H3         -0.5286    1.8543    0.9071 H         1 <0>         0.0912
     27 H4          0.8286   -3.5932   -0.0206 H         1 <0>         0.2013
     28 H5         -2.5593   -2.9828   -0.9339 H         1 <0>         0.1299
     29 H6         -1.6303   -4.1154    0.0772 H         1 <0>         0.1176
     30 H7         -5.3475   -0.9993    4.9884 H         1 <0>         0.1092
     31 H8         -6.4259   -2.3307    4.5060 H         1 <0>         0.1130
     32 H9         -7.4042   -3.8837    6.2836 H         1 <0>         0.1967
     33 H10        -4.1303   -0.0732    6.5440 H         1 <0>         0.1248
     34 H11        -3.3946    1.1675    8.4887 H         1 <0>         0.1298
     35 H12        -4.2545    0.6467   10.7336 H         1 <0>         0.1369
     36 H13        -5.9052   -1.1665   11.0222 H         1 <0>         0.1342
@<TRIPOS>BOND
     1    1    2 1
     2    1   24 1
     3    1   25 1
     4    1   26 1
     5    2    6 1
     6    2    3 2
     7    3    4 1
     8    4    5 2
     9    4    7 1
    10    5    6 1
    11    5   27 1
    12    7    8 1
    13    7   28 1
    14    7   29 1
    15    8   12 1
    16    8    9 2
    17    9   10 1
    18   10   11 2
    19   11   12 1
    20   11   13 1
    21   13   14 1
    22   14   15 1
    23   14   30 1
    24   14   31 1
    25   15   19 1
    26   15   16 2
    27   16   17 1
    28   16   32 1
    29   17   18 1
    30   18   23 ar
    31   18   19 ar
    32   19   20 ar
    33   20   21 ar
    34   20   33 1
    35   21   22 ar
    36   21   34 1
    37   22   23 ar
    38   22   35 1
    39   23   36 1
@<TRIPOS>MOLECULE
ZINC56153619
   50    52     0     0     0
SMALL
USER_CHARGES

@<TRIPOS>ATOM
      1 C1          0.2410    0.3943   -0.1630 C.3       1 <0>        -0.1444
      2 C2          0.9691   -0.9282    0.0854 C.3       1 <0>        -0.0590
      3 C3         -0.0426   -2.0759    0.0818 C.3       1 <0>        -0.1448
      4 C4          1.9876   -1.1529   -1.0023 C.ar      1 <0>        -0.0732
      5 C5          1.5836   -1.2315   -2.3220 C.ar      1 <0>        -0.1148
      6 C6          2.5179   -1.4376   -3.3197 C.ar      1 <0>        -0.1128
      7 C7          3.8562   -1.5647   -2.9979 C.ar      1 <0>        -0.0837
      8 C8          4.2603   -1.4852   -1.6783 C.ar      1 <0>        -0.0937
      9 C9          3.3266   -1.2748   -0.6810 C.ar      1 <0>        -0.1182
     10 C10         4.8746   -1.7904   -4.0855 C.3       1 <0>         0.0947
     11 N1          5.3674   -0.4946   -4.5715 N.3       1 <0>        -0.5309
     12 C11         4.2967    0.2600   -5.2364 C.3       1 <0>         0.0358
     13 C12         4.7987    1.6699   -5.5658 C.3       1 <0>         0.1123
     14 N2          6.0473    1.5536   -6.3343 N.am      1 <0>        -0.6138
     15 C13         7.1185    0.7010   -5.7967 C.3       1 <0>         0.1223
     16 C14         6.5252   -0.6707   -5.4583 C.3       1 <0>         0.0424
     17 C15         6.2059    2.2113   -7.4999 C.2       1 <0>         0.5407
     18 O1          7.2750    2.1716   -8.0805 O.2       1 <0>        -0.5018
     19 C16         5.0935    2.9725   -8.0673 C.2       1 <0>        -0.1711
     20 C17         5.1900    3.4817   -9.3165 C.2       1 <0>         0.0052
     21 C18         6.0852    2.8593  -10.2935 C.2       1 <0>         0.0666
     22 N3          6.7661    1.7197  -10.2065 N.2       1 <0>        -0.4162
     23 C19         7.5114    1.3611  -11.2202 C.2       1 <0>         0.0094
     24 C20         7.5735    2.1499  -12.3262 C.2       1 <0>        -0.2665
     25 S1          6.5480    3.4228  -11.9227 S.3       1 <0>         0.1329
     26 H1          0.9618    1.2120   -0.1604 H         1 <0>         0.0561
     27 H2         -0.2618    0.3563   -1.1294 H         1 <0>         0.0564
     28 H3         -0.4957    0.5569    0.6237 H         1 <0>         0.0583
     29 H4          1.4719   -0.8902    1.0518 H         1 <0>         0.0770
     30 H5         -0.5455   -2.1139   -0.8846 H         1 <0>         0.0564
     31 H6          0.4761   -3.0181    0.2587 H         1 <0>         0.0557
     32 H7         -0.7793   -1.9134    0.8685 H         1 <0>         0.0585
     33 H8          0.5380   -1.1322   -2.5734 H         1 <0>         0.1200
     34 H9          2.2021   -1.4997   -4.3507 H         1 <0>         0.1171
     35 H10         5.3059   -1.5848   -1.4268 H         1 <0>         0.1218
     36 H11         3.6427   -1.2090    0.3496 H         1 <0>         0.1206
     37 H12         5.7078   -2.3703   -3.6885 H         1 <0>         0.0849
     38 H13         4.4124   -2.3352   -4.9087 H         1 <0>         0.0432
     39 H14         4.0110   -0.2487   -6.1572 H         1 <0>         0.0388
     40 H15         3.4334    0.3267   -4.5743 H         1 <0>         0.0928
     41 H16         4.0508    2.1954   -6.1596 H         1 <0>         0.0893
     42 H17         4.9870    2.2166   -4.6418 H         1 <0>         0.0773
     43 H18         7.9043    0.5860   -6.5432 H         1 <0>         0.0956
     44 H19         7.5297    1.1547   -4.8949 H         1 <0>         0.0725
     45 H20         7.2781   -1.2790   -4.9571 H         1 <0>         0.0878
     46 H21         6.2084   -1.1664   -6.3759 H         1 <0>         0.0398
     47 H22         4.1949    3.1280   -7.4887 H         1 <0>         0.1476
     48 H23         4.6068    4.3476   -9.5932 H         1 <0>         0.1582
     49 H24         8.0761    0.4414  -11.1786 H         1 <0>         0.1611
     50 H25         8.1356    1.9964  -13.2355 H         1 <0>         0.1957
@<TRIPOS>BOND
     1    1    2 1
     2    1   26 1
     3    1   27 1
     4    1   28 1
     5    2    3 1
     6    2    4 1
     7    2   29 1
     8    3   30 1
     9    3   31 1
    10    3   32 1
    11    4    9 ar
    12    4    5 ar
    13    5    6 ar
    14    5   33 1
    15    6    7 ar
    16    6   34 1
    17    7    8 ar
    18    7   10 1
    19    8    9 ar
    20    8   35 1
    21    9   36 1
    22   10   11 1
    23   10   37 1
    24   10   38 1
    25   11   16 1
    26   11   12 1
    27   12   13 1
    28   12   39 1
    29   12   40 1
    30   13   14 1
    31   13   41 1
    32   13   42 1
    33   14   15 1
    34   14   17 am
    35   15   16 1
    36   15   43 1
    37   15   44 1
    38   16   45 1
    39   16   46 1
    40   17   18 2
    41   17   19 1
    42   19   20 2
    43   19   47 1
    44   20   21 1
    45   20   48 1
    46   21   25 1
    47   21   22 2
    48   22   23 1
    49   23   24 2
    50   23   49 1
    51   24   25 1
    52   24   50 1
@<TRIPOS>MOLECULE
ZINC65043423
   32    33     0     0     0
SMALL
USER_CHARGES

@<TRIPOS>ATOM
      1 C1         -0.0187    1.5258    0.0104 C.3       1 <0>        -0.1501
      2 C2          0.0021   -0.0041    0.0020 C.3       1 <0>        -0.0456
      3 C3         -1.4117   -0.5257    0.0127 C.2       1 <0>         0.0929
      4 N1         -2.1816   -0.8068   -1.0146 N.2       1 <0>        -0.5282
      5 C4         -3.3999   -1.2574   -0.8591 C.2       1 <0>         0.1609
      6 C5         -3.8315   -1.4212    0.4546 C.2       1 <0>        -0.3337
      7 S1         -2.3750   -0.8928    1.3430 S.3       1 <0>         0.1754
      8 C6         -5.0740   -1.8819    0.9476 C.2       1 <0>         0.4589
      9 O1         -5.9525   -2.2040    0.1737 O.2       1 <0>        -0.3931
     10 C7         -5.3080   -1.9733    2.4335 C.3       1 <0>         0.0143
     11 C8         -5.8652   -0.7013    2.9216 C.1       1 <0>         0.2116
     12 N2         -6.2952    0.2804    3.2983 N.1       1 <0>        -0.3697
     13 C9         -6.2780   -3.0901    2.7215 C.ar      1 <0>         0.1699
     14 C10        -5.8880   -4.1435    3.5291 C.ar      1 <0>        -0.0787
     15 C11        -6.7894   -5.1659    3.7879 C.ar      1 <0>        -0.0089
     16 C12        -8.0532   -5.0899    3.2227 C.ar      1 <0>        -0.2176
     17 C13        -8.3710   -4.0063    2.4263 C.ar      1 <0>         0.1686
     18 N3         -7.4906   -3.0494    2.2054 N.ar      1 <0>        -0.4265
     19 C14        -9.0676   -6.1758    3.4736 C.3       1 <0>         0.5194
     20 F1         -9.8168   -5.8601    4.6122 F         1 <0>        -0.1677
     21 F2         -9.9199   -6.2819    2.3693 F         1 <0>        -0.1672
     22 F3         -8.4079   -7.3934    3.6722 F         1 <0>        -0.1698
     23 Cl1        -4.2914   -4.1858    4.2093 Cl        1 <0>        -0.0215
     24 H1          1.0039    1.9031    0.0027 H         1 <0>         0.0772
     25 H2         -0.5459    1.8868   -0.8726 H         1 <0>         0.0653
     26 H3         -0.5289    1.8773    0.9072 H         1 <0>         0.0608
     27 H4          0.5123   -0.3556   -0.8948 H         1 <0>         0.1067
     28 H5          0.5293   -0.3651    0.8851 H         1 <0>         0.0987
     29 H6         -4.0348   -1.4888   -1.7015 H         1 <0>         0.1907
     30 H7         -4.3630   -2.1736    2.9385 H         1 <0>         0.1526
     31 H8         -6.5132   -6.0013    4.4142 H         1 <0>         0.1693
     32 H9         -9.3533   -3.9403    1.9823 H         1 <0>         0.1852
@<TRIPOS>BOND
     1    1    2 1
     2    1   24 1
     3    1   25 1
     4    1   26 1
     5    2    3 1
     6    2   27 1
     7    2   28 1
     8    3    7 1
     9    3    4 2
    10    4    5 1
    11    5    6 2
    12    5   29 1
    13    6    7 1
    14    6    8 1
    15    8    9 2
    16    8   10 1
    17   10   11 1
    18   10   13 1
    19   10   30 1
    20   11   12 3
    21   13   18 ar
    22   13   14 ar
    23   14   15 ar
    24   14   23 1
    25   15   16 ar
    26   15   31 1
    27   16   17 ar
    28   16   19 1
    29   17   18 ar
    30   17   32 1
    31   19   20 1
    32   19   21 1
    33   19   22 1
@<TRIPOS>MOLECULE
ZINC67653533
   31    33     0     0     0
SMALL
USER_CHARGES

@<TRIPOS>ATOM
      1 C1         -0.0225    1.8097    0.0120 C.3       1 <0>        -0.1543
      2 S1          0.0021   -0.0041    0.0020 S.3       1 <0>         0.0692
      3 C2         -1.7016   -0.4536    0.0159 C.2       1 <0>         0.0345
      4 N1         -2.7864    0.3108    0.0245 N.2       1 <0>        -0.2859
      5 N2         -3.9469   -0.1830    0.0339 N.2       1 <0>        -0.2391
      6 C3         -4.1568   -1.4837    0.0359 C.2       1 <0>         0.0549
      7 S2         -2.4661   -2.0727    0.0145 S.3       1 <0>         0.0615
      8 C4         -5.4511   -2.2556    0.0466 C.3       1 <0>        -0.0163
      9 S3         -5.9838   -2.5663   -1.6593 S.3       1 <0>         0.0800
     10 C5         -7.4889   -3.4647   -1.4790 C.2       1 <0>         0.1672
     11 N3         -8.0485   -3.7964   -0.3388 N.2       1 <0>        -0.4782
     12 C6         -9.1806   -4.4720   -0.5926 C.2       1 <0>        -0.0032
     13 C7         -9.3168   -4.5556   -1.9394 C.2       1 <0>         0.0031
     14 O1         -8.2544   -3.9171   -2.4854 O.3       1 <0>        -0.1715
     15 C8        -10.4175   -5.2142   -2.6720 C.ar      1 <0>        -0.0277
     16 C9        -11.4578   -5.8274   -1.9708 C.ar      1 <0>        -0.0645
     17 C10       -12.4831   -6.4404   -2.6601 C.ar      1 <0>        -0.1471
     18 C11       -12.4823   -6.4485   -4.0459 C.ar      1 <0>         0.1118
     19 C12       -11.4526   -5.8415   -4.7470 C.ar      1 <0>        -0.1484
     20 C13       -10.4247   -5.2208   -4.0684 C.ar      1 <0>        -0.0688
     21 F1        -13.4890   -7.0508   -4.7159 F         1 <0>        -0.1331
     22 H1          1.0001    2.1870    0.0043 H         1 <0>         0.1226
     23 H2         -0.5497    2.1708   -0.8711 H         1 <0>         0.0977
     24 H3         -0.5327    2.1613    0.9088 H         1 <0>         0.0974
     25 H4         -5.3032   -3.2057    0.5598 H         1 <0>         0.1320
     26 H5         -6.2149   -1.6770    0.5661 H         1 <0>         0.1408
     27 H6         -9.8603   -4.8761    0.1431 H         1 <0>         0.1937
     28 H7        -11.4592   -5.8221   -0.8909 H         1 <0>         0.1420
     29 H8        -13.2880   -6.9154   -2.1189 H         1 <0>         0.1462
     30 H9        -11.4570   -5.8511   -5.8270 H         1 <0>         0.1439
     31 H10        -9.6249   -4.7445   -4.6158 H         1 <0>         0.1398
@<TRIPOS>BOND
     1    1    2 1
     2    1   22 1
     3    1   23 1
     4    1   24 1
     5    2    3 1
     6    3    7 1
     7    3    4 2
     8    4    5 1
     9    5    6 2
    10    6    7 1
    11    6    8 1
    12    8    9 1
    13    8   25 1
    14    8   26 1
    15    9   10 1
    16   10   14 1
    17   10   11 2
    18   11   12 1
    19   12   13 2
    20   12   27 1
    21   13   14 1
    22   13   15 1
    23   15   20 ar
    24   15   16 ar
    25   16   17 ar
    26   16   28 1
    27   17   18 ar
    28   17   29 1
    29   18   19 ar
    30   18   21 1
    31   19   20 ar
    32   19   30 1
    33   20   31 1
@<TRIPOS>MOLECULE
ZINC26550082
   32    33     0     0     0
SMALL
USER_CHARGES
methyl (2S)-2-[[5-(3,5-dimethylisoxazol-4-yl)-1,3,4-thiadiazol-2-yl]sulfanyl]propanoate
@<TRIPOS>ATOM
      1 C1          0.3433   -5.6465    1.8443 C.3       1 <0>        -0.0906
      2 C2         -1.1448   -5.8840    1.8332 C.2       1 <0>         0.0734
      3 C3         -2.1674   -4.8966    1.7358 C.2       1 <0>        -0.1411
      4 C4         -3.3245   -5.6261    1.7745 C.2       1 <0>         0.0245
      5 O1         -2.9540   -6.9100    1.8766 O.3       1 <0>         0.1121
      6 N1         -1.7522   -7.0307    1.9102 N.2       1 <0>        -0.3559
      7 C5         -4.7327   -5.0929    1.7124 C.3       1 <0>        -0.0943
      8 C6         -2.0145   -3.4294    1.6254 C.2       1 <0>         0.1459
      9 N2         -0.9157   -2.6873    1.5910 N.2       1 <0>        -0.2597
     10 N3         -0.9625   -1.4307    1.4931 N.2       1 <0>        -0.2702
     11 C7         -2.1143   -0.7757    1.4186 C.2       1 <0>         0.0002
     12 S1         -3.2602   -2.1486    1.5076 S.3       1 <0>         0.0611
     13 S2         -2.4269    0.9527    1.2797 S.3       1 <0>         0.1650
     14 C8         -0.7288    1.5792    1.2668 C.3       1 <0>        -0.1122
     15 H1         -0.0560    1.3195    2.0974 H         1 <0>         0.1471
     16 C9         -0.0127    1.0858    0.0080 C.3       1 <0>        -0.1518
     17 C10        -0.7493    3.0861    1.2751 C.2       1 <0>         0.4802
     18 O2         -1.7440    3.6787    0.9299 O.2       1 <0>        -0.4906
     19 O3          0.3376    3.7699    1.6660 O.3       1 <0>        -0.3475
     20 C11         0.2463    5.2189    1.6487 C.3       1 <0>         0.0312
     21 H2          0.5430   -4.5677    1.7645 H         1 <0>         0.1002
     22 H3          0.8043   -6.1687    0.9930 H         1 <0>         0.0852
     23 H4          0.7687   -6.0297    2.7835 H         1 <0>         0.0852
     24 H5         -5.4444   -5.9299    1.7660 H         1 <0>         0.1023
     25 H6         -4.8773   -4.5486    0.7675 H         1 <0>         0.1003
     26 H7         -4.9042   -4.4110    2.5583 H         1 <0>         0.1002
     27 H8          1.0193    1.4666    0.0002 H         1 <0>         0.0841
     28 H9         -0.5448    1.4502   -0.8831 H         1 <0>         0.0736
     29 H10         0.0022   -0.0141    0.0020 H         1 <0>         0.0940
     30 H11         1.1990    5.6504    1.9896 H         1 <0>         0.1099
     31 H12        -0.5637    5.5433    2.3186 H         1 <0>         0.0691
     32 H13         0.0345    5.5607    0.6248 H         1 <0>         0.0691
@<TRIPOS>BOND
     1    1    2 1
     2    1   21 1
     3    1   22 1
     4    1   23 1
     5    2    6 2
     6    2    3 1
     7    3    4 2
     8    3    8 1
     9    4    5 1
    10    4    7 1
    11    5    6 1
    12    7   24 1
    13    7   25 1
    14    7   26 1
    15    8   12 1
    16    8    9 2
    17    9   10 1
    18   10   11 2
    19   11   12 1
    20   11   13 1
    21   13   14 1
    22   14   15 1
    23   14   16 1
    24   14   17 1
    25   16   27 1
    26   16   28 1
    27   16   29 1
    28   17   18 2
    29   17   19 1
    30   19   20 1
    31   20   30 1
    32   20   31 1
    33   20   32 1
@<TRIPOS>MOLECULE
ZINC41126839
   32    34     0     0     0
SMALL
USER_CHARGES

@<TRIPOS>ATOM
      1 C1         -0.0187    1.5258    0.0104 C.3       1 <0>        -0.1522
      2 C2          0.0021   -0.0041    0.0020 C.3       1 <0>         0.0613
      3 O1          0.6709   -0.4649   -1.1737 O.3       1 <0>        -0.3502
      4 C3          0.7755   -1.7935   -1.3341 C.2       1 <0>         0.4724
      5 O2          0.3143   -2.5404   -0.5039 O.2       1 <0>        -0.5008
      6 C4          1.4679   -2.3535   -2.5498 C.3       1 <0>        -0.0895
      7 C5          1.4496   -3.8591   -2.4894 C.ar      1 <0>        -0.0197
      8 C6          2.5259   -4.5432   -1.9619 C.ar      1 <0>        -0.1047
      9 C7          2.5103   -5.9251   -1.9054 C.ar      1 <0>        -0.0778
     10 C8          1.4170   -6.6302   -2.3766 C.ar      1 <0>        -0.1108
     11 C9          0.3352   -5.9579   -2.9067 C.ar      1 <0>        -0.0711
     12 C10         0.3425   -4.5639   -2.9612 C.ar      1 <0>        -0.0214
     13 C11        -0.8174   -3.8362   -3.5230 C.2       1 <0>         0.1927
     14 N1         -0.9881   -2.5468   -3.6660 N.2       1 <0>        -0.2733
     15 N2         -2.1533   -2.0330   -4.2193 N.pl3     1 <0>        -0.3525
     16 C12        -2.7210   -0.8162   -4.5382 C.2       1 <0>         0.2222
     17 N3         -3.8949   -1.0426   -5.0576 N.2       1 <0>        -0.2580
     18 N4         -4.1236   -2.3093   -5.0964 N.2       1 <0>        -0.2212
     19 C13        -3.1051   -2.9463   -4.6032 C.2       1 <0>         0.1032
     20 S1         -2.3399   -4.4932   -4.1868 S.3       1 <0>         0.1570
     21 H1          1.0039    1.9031    0.0027 H         1 <0>         0.0682
     22 H2         -0.5459    1.8868   -0.8726 H         1 <0>         0.0668
     23 H3         -0.5289    1.8773    0.9072 H         1 <0>         0.0808
     24 H4          0.5293   -0.3651    0.8851 H         1 <0>         0.0685
     25 H5         -1.0205   -0.3814    0.0098 H         1 <0>         0.0645
     26 H6          0.9501   -2.0196   -3.4490 H         1 <0>         0.1337
     27 H7          2.4999   -2.0034   -2.5737 H         1 <0>         0.1229
     28 H8          3.3822   -3.9984   -1.5928 H         1 <0>         0.1384
     29 H9          3.3551   -6.4560   -1.4920 H         1 <0>         0.1386
     30 H10         1.4107   -7.7092   -2.3298 H         1 <0>         0.1415
     31 H11        -0.5172   -6.5094   -3.2749 H         1 <0>         0.1357
     32 H12        -2.2714    0.1537   -4.3844 H         1 <0>         0.2349
@<TRIPOS>BOND
     1    1    2 1
     2    1   21 1
     3    1   22 1
     4    1   23 1
     5    2    3 1
     6    2   24 1
     7    2   25 1
     8    3    4 1
     9    4    5 2
    10    4    6 1
    11    6    7 1
    12    6   26 1
    13    6   27 1
    14    7   12 ar
    15    7    8 ar
    16    8    9 ar
    17    8   28 1
    18    9   10 ar
    19    9   29 1
    20   10   11 ar
    21   10   30 1
    22   11   12 ar
    23   11   31 1
    24   12   13 1
    25   13   20 1
    26   13   14 2
    27   14   15 1
    28   15   19 1
    29   15   16 1
    30   16   17 2
    31   16   32 1
    32   17   18 1
    33   18   19 2
    34   19   20 1
@<TRIPOS>MOLECULE
ZINC48964155
   41    42     0     0     0
SMALL
USER_CHARGES

@<TRIPOS>ATOM
      1 C1         -0.2383    1.2596    0.1106 C.3       1 <0>        -0.1669
      2 C2         -0.0770   -0.2476   -0.0975 C.3       1 <0>         0.1412
      3 N1          0.7530   -0.4913   -1.2798 N.pl3     1 <0>        -0.6666
      4 C3          2.2074   -0.6022   -1.1436 C.3       1 <0>         0.1456
      5 C4          2.5761   -2.0380   -0.7649 C.3       1 <0>         0.0581
      6 H1          2.0390   -2.3319    0.1370 H         1 <0>         0.0821
      7 C5          4.0977   -2.1423   -0.5257 C.3       1 <0>        -0.1505
      8 C6          4.4367   -3.5207   -1.1557 C.3       1 <0>        -0.1557
      9 C7          3.4346   -3.5587   -2.3369 C.3       1 <0>         0.0487
     10 O1          2.2433   -2.9248   -1.8394 O.3       1 <0>        -0.3734
     11 C8          0.1610   -0.6171   -2.5299 C.ar      1 <0>         0.2843
     12 C9         -0.4036   -1.8322   -2.9120 C.ar      1 <0>        -0.1230
     13 C10        -0.9866   -1.9602   -4.1399 C.ar      1 <0>        -0.0230
     14 C11        -1.0165   -0.8673   -5.0164 C.ar      1 <0>        -0.1801
     15 C12        -0.4477    0.3526   -4.6281 C.ar      1 <0>        -0.0004
     16 C13         0.1283    0.4736   -3.3958 C.ar      1 <0>        -0.0782
     17 N2          0.7239    1.7638   -2.9819 N.pl3     1 <0>         0.0372
     18 O2          0.6037    2.7389   -3.6865 O.2       1 <0>        -0.1834
     19 O3          1.3307    1.8427   -1.9391 O.3       1 <0>        -0.1243
     20 C14        -1.6417   -1.0003   -6.3374 C.2       1 <0>         0.3969
     21 O4         -1.7521   -0.0298   -7.0567 O.2       1 <0>        -0.4481
     22 C15        -2.1464   -2.3427   -6.8004 C.3       1 <0>        -0.2005
     23 H2          0.7421    1.7134    0.2551 H         1 <0>         0.0723
     24 H3         -0.7162    1.6982   -0.7654 H         1 <0>         0.0394
     25 H4         -0.8558    1.4409    0.9903 H         1 <0>         0.0586
     26 H5          0.4009   -0.6862    0.7785 H         1 <0>         0.0762
     27 H6         -1.0574   -0.7014   -0.2420 H         1 <0>         0.0631
     28 H7          2.6818   -0.3429   -2.0901 H         1 <0>         0.0639
     29 H8          2.5525    0.0788   -0.3656 H         1 <0>         0.0891
     30 H9          4.6271   -1.3401   -1.0398 H         1 <0>         0.0789
     31 H10         4.3241   -2.1369    0.5406 H         1 <0>         0.0846
     32 H11         5.4662   -3.5469   -1.5129 H         1 <0>         0.0829
     33 H12         4.2461   -4.3316   -0.4526 H         1 <0>         0.0787
     34 H13         3.8315   -3.0049   -3.1877 H         1 <0>         0.0566
     35 H14         3.2233   -4.5896   -2.6208 H         1 <0>         0.0842
     36 H15        -0.3797   -2.6742   -2.2360 H         1 <0>         0.1555
     37 H16        -1.4236   -2.9026   -4.4355 H         1 <0>         0.1526
     38 H17        -0.4683    1.1974   -5.3007 H         1 <0>         0.1599
     39 H18        -2.0432   -3.0678   -5.9932 H         1 <0>         0.0843
     40 H19        -3.1962   -2.2589   -7.0816 H         1 <0>         0.0988
     41 H20        -1.5648   -2.6723   -7.6614 H         1 <0>         0.1007
@<TRIPOS>BOND
     1    1    2 1
     2    1   23 1
     3    1   24 1
     4    1   25 1
     5    2    3 1
     6    2   26 1
     7    2   27 1
     8    3    4 1
     9    3   11 1
    10    4    5 1
    11    4   28 1
    12    4   29 1
    13    5    6 1
    14    5   10 1
    15    5    7 1
    16    7    8 1
    17    7   30 1
    18    7   31 1
    19    8    9 1
    20    8   32 1
    21    8   33 1
    22    9   10 1
    23    9   34 1
    24    9   35 1
    25   11   16 ar
    26   11   12 ar
    27   12   13 ar
    28   12   36 1
    29   13   14 ar
    30   13   37 1
    31   14   15 ar
    32   14   20 1
    33   15   16 ar
    34   15   38 1
    35   16   17 1
    36   17   18 2
    37   17   19 1
    38   20   21 2
    39   20   22 1
    40   22   39 1
    41   22   40 1
    42   22   41 1
@<TRIPOS>MOLECULE
ZINC62028835
   39    40     0     0     0
SMALL
USER_CHARGES

@<TRIPOS>ATOM
      1 C1         -0.0178    1.4608    0.0101 C.3       1 <0>         0.0986
      2 N1          0.0021   -0.0041    0.0020 N.pl3     1 <0>        -0.5700
      3 C2          0.0241   -0.7433    1.2666 C.3       1 <0>         0.1314
      4 C3         -1.4105   -1.0203    1.7205 C.3       1 <0>        -0.1341
      5 C4         -1.3875   -1.7923    3.0413 C.3       1 <0>         0.0652
      6 O1         -2.7274   -2.0510    3.4652 O.3       1 <0>        -0.3925
      7 C5         -2.8188   -2.7714    4.6960 C.3       1 <0>         0.0315
      8 C6          0.0000   -0.6876   -1.1968 C.ar      1 <0>         0.6423
      9 N2         -0.0144   -0.0177   -2.3443 N.ar      1 <0>        -0.6451
     10 C7         -0.0159   -0.6793   -3.4964 C.ar      1 <0>         0.6596
     11 N3         -0.0029   -2.0101   -3.4979 N.ar      1 <0>        -0.6262
     12 C8          0.0115   -2.6741   -2.3539 C.ar      1 <0>         0.4773
     13 N4          0.0181   -2.0180   -1.2049 N.ar      1 <0>        -0.6255
     14 Cl1         0.0278   -4.4101   -2.3602 Cl        1 <0>         0.0370
     15 N5         -0.0313    0.0127   -4.6903 N.pl3     1 <0>        -0.5764
     16 C9         -0.0407    1.4760   -4.8325 C.3       1 <0>         0.1227
     17 C10        -0.0834    1.7893   -6.3430 C.3       1 <0>        -0.1340
     18 C11        -0.6668    0.4867   -6.9517 C.3       1 <0>        -0.1348
     19 C12        -0.0347   -0.5929   -6.0344 C.3       1 <0>         0.1181
     20 H1          1.0048    1.8381    0.0023 H         1 <0>         0.0582
     21 H2         -0.5450    1.8219   -0.8730 H         1 <0>         0.0827
     22 H3         -0.5280    1.8123    0.9069 H         1 <0>         0.0746
     23 H4          0.5496   -1.6879    1.1262 H         1 <0>         0.0949
     24 H5          0.5371   -0.1514    2.0246 H         1 <0>         0.0848
     25 H6         -1.9359   -0.0757    1.8610 H         1 <0>         0.0712
     26 H7         -1.9235   -1.6122    0.9626 H         1 <0>         0.0761
     27 H8         -0.8620   -2.7369    2.9008 H         1 <0>         0.0539
     28 H9         -0.8745   -1.2004    3.7993 H         1 <0>         0.0501
     29 H10        -3.8675   -2.9275    4.9486 H         1 <0>         0.0865
     30 H11        -2.3230   -3.7363    4.5899 H         1 <0>         0.0427
     31 H12        -2.3355   -2.1997    5.4883 H         1 <0>         0.0416
     32 H13        -0.9219    1.8904   -4.3428 H         1 <0>         0.0719
     33 H14         0.8631    1.8970   -4.3920 H         1 <0>         0.0714
     34 H15        -0.7400    2.6361   -6.5428 H         1 <0>         0.0872
     35 H16         0.9193    1.9786   -6.7261 H         1 <0>         0.0798
     36 H17        -1.7544    0.4757   -6.8816 H         1 <0>         0.0787
     37 H18        -0.3420    0.3585   -7.9842 H         1 <0>         0.0900
     38 H19         0.9837   -0.8156   -6.3527 H         1 <0>         0.0726
     39 H20        -0.6416   -1.4983   -6.0410 H         1 <0>         0.0861
@<TRIPOS>BOND
     1    1    2 1
     2    1   20 1
     3    1   21 1
     4    1   22 1
     5    2    3 1
     6    2    8 1
     7    3    4 1
     8    3   23 1
     9    3   24 1
    10    4    5 1
    11    4   25 1
    12    4   26 1
    13    5    6 1
    14    5   27 1
    15    5   28 1
    16    6    7 1
    17    7   29 1
    18    7   30 1
    19    7   31 1
    20    8   13 ar
    21    8    9 ar
    22    9   10 ar
    23   10   11 ar
    24   10   15 1
    25   11   12 ar
    26   12   13 ar
    27   12   14 1
    28   15   19 1
    29   15   16 1
    30   16   17 1
    31   16   32 1
    32   16   33 1
    33   17   18 1
    34   17   34 1
    35   17   35 1
    36   18   19 1
    37   18   36 1
    38   18   37 1
    39   19   38 1
    40   19   39 1
@<TRIPOS>MOLECULE
ZINC67644108
   31    32     0     0     0
SMALL
USER_CHARGES

@<TRIPOS>ATOM
      1 C1         -0.0291    1.3553    0.0142 C.ar      1 <0>        -0.0667
      2 C2          1.1520    2.0733   -0.0232 C.ar      1 <0>        -0.1350
      3 C3          2.3659    1.4126   -0.0399 C.ar      1 <0>        -0.0745
      4 C4          2.4012    0.0273   -0.0193 C.ar      1 <0>         0.0571
      5 C5          1.2125   -0.6954    0.0183 C.ar      1 <0>         0.1289
      6 C6         -0.0012   -0.0264    0.0350 C.ar      1 <0>        -0.1945
      7 O1          1.2417   -2.0546    0.0383 O.3       1 <0>        -0.2950
      8 C7         -0.0170   -2.7301    0.0767 C.3       1 <0>         0.0115
      9 C8          0.2160   -4.2421    0.0944 C.3       1 <0>         0.4662
     10 F1          0.9642   -4.5855    1.2255 F         1 <0>        -0.1723
     11 F2         -1.0163   -4.9034    0.1320 F         1 <0>        -0.1684
     12 F3          0.9130   -4.6201   -1.0582 F         1 <0>        -0.1698
     13 O2          3.5947   -0.6244   -0.0361 O.3       1 <0>        -0.2748
     14 C9          4.0345   -1.1036   -1.2104 C.2       1 <0>         0.4770
     15 O3          3.4248   -0.8663   -2.2262 O.2       1 <0>        -0.4595
     16 C10         5.2886   -1.9376   -1.2617 C.3       1 <0>        -0.1251
     17 H1          6.0657   -1.6625   -0.5485 H         1 <0>         0.1716
     18 C11         5.1370   -3.4211   -1.6039 C.3       1 <0>        -0.1048
     19 C12         5.7368   -2.4561   -2.6296 C.3       1 <0>        -0.0651
     20 H2          6.8087   -2.5224   -2.8162 H         1 <0>         0.1878
     21 N1          4.9139   -2.1037   -3.7893 N.pl3     1 <0>         0.0153
     22 O4          5.3943   -1.4735   -4.7024 O.2       1 <0>        -0.1682
     23 O5          3.7544   -2.4433   -3.8333 O.3       1 <0>        -0.1147
     24 H3         -0.9754    1.8754    0.0317 H         1 <0>         0.1384
     25 H4          1.1260    3.1529   -0.0396 H         1 <0>         0.1396
     26 H5          3.2870    1.9758   -0.0694 H         1 <0>         0.1419
     27 H6         -0.9252   -0.5848    0.0642 H         1 <0>         0.1397
     28 H7         -0.5601   -2.4356    0.9747 H         1 <0>         0.1135
     29 H8         -0.6000   -2.4625   -0.8046 H         1 <0>         0.1141
     30 H9          5.8145   -4.1219   -1.1161 H         1 <0>         0.1486
     31 H10         4.1301   -3.7939   -1.7920 H         1 <0>         0.1371
@<TRIPOS>BOND
     1    1    6 ar
     2    1    2 ar
     3    1   24 1
     4    2    3 ar
     5    2   25 1
     6    3    4 ar
     7    3   26 1
     8    4    5 ar
     9    4   13 1
    10    5    6 ar
    11    5    7 1
    12    6   27 1
    13    7    8 1
    14    8    9 1
    15    8   28 1
    16    8   29 1
    17    9   10 1
    18    9   11 1
    19    9   12 1
    20   13   14 1
    21   14   15 2
    22   14   16 1
    23   16   17 1
    24   16   19 1
    25   16   18 1
    26   18   19 1
    27   18   30 1
    28   18   31 1
    29   19   20 1
    30   19   21 1
    31   21   22 2
    32   21   23 1
@<TRIPOS>MOLECULE
ZINC31980125
   37    38     0     0     0
SMALL
USER_CHARGES
2-methyl-4-[(1S,3S)-3-methylcyclohexoxy]aniline
@<TRIPOS>ATOM
      1 C1         -6.1425    0.0982   -3.7561 C.3       1 <0>        -0.1076
      2 C2         -4.6927    0.5052   -3.6975 C.ar      1 <0>        -0.1334
      3 C3         -4.0535    0.6106   -2.4776 C.ar      1 <0>        -0.1039
      4 C4         -2.7207    0.9899   -2.4232 C.ar      1 <0>         0.0744
      5 C5         -2.0254    1.2534   -3.5943 C.ar      1 <0>        -0.1639
      6 C6         -2.6614    1.1434   -4.8150 C.ar      1 <0>        -0.1645
      7 C7         -3.9976    0.7688   -4.8701 C.ar      1 <0>         0.1930
      8 N1         -4.6431    0.6575   -6.1067 N.pl3     1 <0>        -0.9018
      9 O1         -2.0933    1.0980   -1.2214 O.3       1 <0>        -0.3123
     10 C8         -0.6903    1.3682   -1.2439 C.3       1 <0>         0.0878
     11 H1         -0.2957    0.8330   -2.1202 H         1 <0>         0.0698
     12 C9         -0.4633    2.8764   -1.3662 C.3       1 <0>        -0.1444
     13 C10        -1.1003    3.5866   -0.1701 C.3       1 <0>        -0.1155
     14 C11        -0.4621    3.0781    1.1241 C.3       1 <0>        -0.1151
     15 C12        -0.6892    1.5700    1.2464 C.3       1 <0>        -0.0896
     16 H2         -1.7692    1.3620    1.2637 H         1 <0>         0.0789
     17 C13        -0.0521    0.8597    0.0503 C.3       1 <0>        -0.1084
     18 C14        -0.0510    1.0615    2.5407 C.3       1 <0>        -0.1501
     19 H3         -6.5186   -0.0664   -2.7356 H         1 <0>         0.0677
     20 H4         -6.2393   -0.8309   -4.3369 H         1 <0>         0.0648
     21 H5         -6.7278    0.8949   -4.2385 H         1 <0>         0.0648
     22 H6         -4.5929    0.4016   -1.5656 H         1 <0>         0.1263
     23 H7         -0.9862    1.5444   -3.5513 H         1 <0>         0.1259
     24 H8         -2.1200    1.3490   -5.7266 H         1 <0>         0.1192
     25 H9         -4.0921    0.8664   -7.0355 H         1 <0>         0.4133
     26 H10        -5.7015    0.3611   -6.1499 H         1 <0>         0.4134
     27 H11         0.6167    3.0844   -1.3836 H         1 <0>         0.0746
     28 H12        -0.9221    3.2420   -2.2967 H         1 <0>         0.0683
     29 H13        -0.9371    4.6709   -0.2580 H         1 <0>         0.0612
     30 H14        -2.1803    3.3786   -0.1527 H         1 <0>         0.0690
     31 H15         0.6179    3.2861    1.1067 H         1 <0>         0.0604
     32 H16        -0.9200    3.5888    1.9840 H         1 <0>         0.0627
     33 H17        -0.2153   -0.2246    0.1382 H         1 <0>         0.0710
     34 H18         1.0279    1.0677    0.0329 H         1 <0>         0.0800
     35 H19        -0.2143   -0.0228    2.6287 H         1 <0>         0.0548
     36 H20        -0.5090    1.5722    3.4006 H         1 <0>         0.0554
     37 H21         1.0290    1.2695    2.5233 H         1 <0>         0.0535
@<TRIPOS>BOND
     1    1    2 1
     2    1   19 1
     3    1   20 1
     4    1   21 1
     5    2    7 ar
     6    2    3 ar
     7    3    4 ar
     8    3   22 1
     9    4    5 ar
    10    4    9 1
    11    5    6 ar
    12    5   23 1
    13    6    7 ar
    14    6   24 1
    15    7    8 1
    16    8   25 1
    17    8   26 1
    18    9   10 1
    19   10   11 1
    20   10   17 1
    21   10   12 1
    22   12   13 1
    23   12   27 1
    24   12   28 1
    25   13   14 1
    26   13   29 1
    27   13   30 1
    28   14   15 1
    29   14   31 1
    30   14   32 1
    31   15   16 1
    32   15   17 1
    33   15   18 1
    34   17   33 1
    35   17   34 1
    36   18   35 1
    37   18   36 1
    38   18   37 1
@<TRIPOS>MOLECULE
ZINC38647563
   45    46     0     0     0
SMALL
USER_CHARGES

@<TRIPOS>ATOM
      1 C1         -0.1358    1.4257   -0.5249 C.3       1 <0>        -0.1463
      2 C2          0.0021   -0.0041    0.0020 C.3       1 <0>        -0.0419
      3 C3          1.1065   -0.0535    1.0597 C.3       1 <0>        -0.1410
      4 C4         -1.3224   -0.4473    0.6266 C.3       1 <0>        -0.0679
      5 H1         -2.1284   -0.3088   -0.0940 H         1 <0>         0.0771
      6 C5         -1.6040    0.3921    1.8744 C.3       1 <0>        -0.1158
      7 C6         -2.9285   -0.0512    2.4990 C.3       1 <0>        -0.1205
      8 C7         -2.8401   -1.5284    2.8874 C.3       1 <0>        -0.1142
      9 C8         -2.5584   -2.3679    1.6397 C.3       1 <0>        -0.1535
     10 C9         -1.2340   -1.9246    1.0151 C.3       1 <0>         0.1077
     11 H2         -1.0333   -2.5226    0.1261 H         1 <0>         0.0544
     12 O1         -0.1774   -2.1063    1.9598 O.3       1 <0>        -0.5506
     13 C10         0.3600   -0.9411   -1.1533 C.3       1 <0>        -0.0676
     14 H3          0.3545   -1.9722   -0.7999 H         1 <0>         0.0790
     15 C11        -0.6668   -0.7814   -2.2763 C.3       1 <0>        -0.1173
     16 C12        -0.3089   -1.7184   -3.4316 C.3       1 <0>        -0.1199
     17 C13         1.0835   -1.3679   -3.9600 C.3       1 <0>        -0.1144
     18 C14         2.1103   -1.5275   -2.8370 C.3       1 <0>        -0.1536
     19 C15         1.7524   -0.5905   -1.6817 C.3       1 <0>         0.1104
     20 H4          2.4839   -0.7043   -0.8817 H         1 <0>         0.0553
     21 O2          1.7596    0.7613   -2.1450 O.3       1 <0>        -0.5511
     22 H5          0.8504    1.8182   -0.7730 H         1 <0>         0.0790
     23 H6         -0.7617    1.4252   -1.4173 H         1 <0>         0.0533
     24 H7         -0.5943    2.0522    0.2401 H         1 <0>         0.0419
     25 H8          0.7524    0.4165    1.9771 H         1 <0>         0.0557
     26 H9          1.3700   -1.0917    1.2616 H         1 <0>         0.0737
     27 H10         1.9841    0.4794    0.6937 H         1 <0>         0.0406
     28 H11        -0.7981    0.2535    2.5951 H         1 <0>         0.0771
     29 H12        -1.6670    1.4445    1.5977 H         1 <0>         0.0615
     30 H13        -3.1292    0.5468    3.3880 H         1 <0>         0.0599
     31 H14        -3.7345    0.0874    1.7784 H         1 <0>         0.0568
     32 H15        -2.0341   -1.6670    3.6081 H         1 <0>         0.0677
     33 H16        -3.7837   -1.8442    3.3324 H         1 <0>         0.0565
     34 H17        -2.4954   -3.4203    1.9164 H         1 <0>         0.0616
     35 H18        -3.3644   -2.2293    0.9190 H         1 <0>         0.0678
     36 H19        -0.0633   -3.0212    2.2513 H         1 <0>         0.3673
     37 H20        -1.6588   -1.0312   -1.8998 H         1 <0>         0.0573
     38 H21        -0.6613    0.2497   -2.6297 H         1 <0>         0.0780
     39 H22        -0.3144   -2.7495   -3.0782 H         1 <0>         0.0558
     40 H23        -1.0404   -1.6047   -4.2317 H         1 <0>         0.0598
     41 H24         1.3385   -2.0354   -4.7831 H         1 <0>         0.0564
     42 H25         1.0890   -0.3368   -4.3135 H         1 <0>         0.0679
     43 H26         2.1048   -2.5586   -2.4836 H         1 <0>         0.0671
     44 H27         3.1022   -1.2778   -3.2135 H         1 <0>         0.0618
     45 H28         2.6127    1.0526   -2.4949 H         1 <0>         0.3672
@<TRIPOS>BOND
     1    1    2 1
     2    1   22 1
     3    1   23 1
     4    1   24 1
     5    2    3 1
     6    2    4 1
     7    2   13 1
     8    3   25 1
     9    3   26 1
    10    3   27 1
    11    4    5 1
    12    4   10 1
    13    4    6 1
    14    6    7 1
    15    6   28 1
    16    6   29 1
    17    7    8 1
    18    7   30 1
    19    7   31 1
    20    8    9 1
    21    8   32 1
    22    8   33 1
    23    9   10 1
    24    9   34 1
    25    9   35 1
    26   10   11 1
    27   10   12 1
    28   12   36 1
    29   13   14 1
    30   13   19 1
    31   13   15 1
    32   15   16 1
    33   15   37 1
    34   15   38 1
    35   16   17 1
    36   16   39 1
    37   16   40 1
    38   17   18 1
    39   17   41 1
    40   17   42 1
    41   18   19 1
    42   18   43 1
    43   18   44 1
    44   19   20 1
    45   19   21 1
    46   21   45 1
@<TRIPOS>MOLECULE
ZINC49979816
   32    33     0     0     0
SMALL
USER_CHARGES

@<TRIPOS>ATOM
      1 C1          0.6216   -2.7911    2.6982 C.3       1 <0>        -0.1108
      2 C2          0.2314   -2.2677    1.3399 C.ar      1 <0>        -0.0895
      3 C3          0.2853   -3.0979    0.2374 C.ar      1 <0>        -0.1144
      4 C4         -0.0721   -2.6184   -1.0093 C.ar      1 <0>        -0.1186
      5 C5         -0.4845   -1.3065   -1.1571 C.ar      1 <0>        -0.1189
      6 C6         -0.5412   -0.4711   -0.0592 C.ar      1 <0>        -0.1216
      7 C7         -0.1883   -0.9513    1.1962 C.ar      1 <0>         0.1669
      8 N1         -0.2499   -0.1106    2.3099 N.pl3     1 <0>        -0.6270
      9 C8          0.9568    0.5768    2.7764 C.3       1 <0>         0.1140
     10 C9         -1.4650    0.0751    2.9806 C.ar      1 <0>         0.1146
     11 C10        -1.8645   -0.8249    3.9583 C.ar      1 <0>        -0.0860
     12 C11        -3.0641   -0.6405    4.6196 C.ar      1 <0>        -0.1440
     13 C12        -3.8702    0.4398    4.3104 C.ar      1 <0>        -0.1068
     14 C13        -3.4798    1.3430    3.3369 C.ar      1 <0>         0.0204
     15 C14        -2.2736    1.1676    2.6718 C.ar      1 <0>         0.1854
     16 N2         -1.8729    2.0834    1.6893 N.pl3     1 <0>        -0.8681
     17 F1         -4.2697    2.3973    3.0374 F         1 <0>        -0.1432
     18 H1         -0.2663   -3.1520    3.2172 H         1 <0>         0.0691
     19 H2          1.3323   -3.6093    2.5818 H         1 <0>         0.0634
     20 H3          1.0811   -1.9904    3.2778 H         1 <0>         0.0690
     21 H4          0.6072   -4.1227    0.3492 H         1 <0>         0.1232
     22 H5         -0.0287   -3.2697   -1.8697 H         1 <0>         0.1226
     23 H6         -0.7623   -0.9350   -2.1324 H         1 <0>         0.1218
     24 H7         -0.8634    0.5532   -0.1753 H         1 <0>         0.1184
     25 H8          1.0395    1.5433    2.2793 H         1 <0>         0.0361
     26 H9          0.8958    0.7266    3.8544 H         1 <0>         0.0626
     27 H10         1.8329   -0.0281    2.5427 H         1 <0>         0.0629
     28 H11        -1.2379   -1.6700    4.2024 H         1 <0>         0.1294
     29 H12        -3.3730   -1.3425    5.3799 H         1 <0>         0.1314
     30 H13        -4.8069    0.5789    4.8296 H         1 <0>         0.1349
     31 H14        -0.9814    2.0297    1.3109 H         1 <0>         0.4021
     32 H15        -2.4871    2.7709    1.3877 H         1 <0>         0.4006
@<TRIPOS>BOND
     1    1    2 1
     2    1   18 1
     3    1   19 1
     4    1   20 1
     5    2    7 ar
     6    2    3 ar
     7    3    4 ar
     8    3   21 1
     9    4    5 ar
    10    4   22 1
    11    5    6 ar
    12    5   23 1
    13    6    7 ar
    14    6   24 1
    15    7    8 1
    16    8    9 1
    17    8   10 1
    18    9   25 1
    19    9   26 1
    20    9   27 1
    21   10   15 ar
    22   10   11 ar
    23   11   12 ar
    24   11   28 1
    25   12   13 ar
    26   12   29 1
    27   13   14 ar
    28   13   30 1
    29   14   15 ar
    30   14   17 1
    31   15   16 1
    32   16   31 1
    33   16   32 1
@<TRIPOS>MOLECULE
ZINC42446606
   35    36     0     0     0
SMALL
USER_CHARGES

@<TRIPOS>ATOM
      1 C1         -0.0187    1.5258    0.0104 C.3       1 <0>        -0.1544
      2 C2          0.0021   -0.0041    0.0020 C.3       1 <0>        -0.1197
      3 C3          0.7182   -0.4975   -1.2568 C.3       1 <0>        -0.0833
      4 C4          2.1873   -0.0713   -1.2078 C.3       1 <0>        -0.1311
      5 C5          2.8928   -0.5369   -2.4854 C.3       1 <0>         0.1474
      6 N1          2.6890   -1.9840   -2.6375 N.pl3     1 <0>        -0.6671
      7 C6          1.3180   -2.5114   -2.6073 C.3       1 <0>         0.1477
      8 C7          0.6302   -2.0237   -1.3284 C.3       1 <0>        -0.1306
      9 C8          3.7811   -2.8444   -2.8086 C.ar      1 <0>         0.1217
     10 C9          4.3979   -3.4118   -1.7018 C.ar      1 <0>        -0.0636
     11 C10         5.4746   -4.2601   -1.8703 C.ar      1 <0>        -0.1890
     12 C11         5.9408   -4.5460   -3.1468 C.ar      1 <0>         0.2240
     13 C12         5.3245   -3.9790   -4.2542 C.ar      1 <0>        -0.1898
     14 C13         4.2435   -3.1346   -4.0863 C.ar      1 <0>         0.0070
     15 Cl1         3.4676   -2.4315   -5.4710 Cl        1 <0>        -0.0642
     16 N2          7.0326   -5.4056   -3.3169 N.pl3     1 <0>        -0.8763
     17 H1          1.0039    1.9031    0.0027 H         1 <0>         0.0559
     18 H2         -0.5459    1.8868   -0.8726 H         1 <0>         0.0529
     19 H3         -0.5289    1.8773    0.9072 H         1 <0>         0.0517
     20 H4          0.5293   -0.3651    0.8851 H         1 <0>         0.0594
     21 H5         -1.0205   -0.3814    0.0098 H         1 <0>         0.0598
     22 H6          0.2440   -0.0647   -2.1376 H         1 <0>         0.0683
     23 H7          2.2488    1.0144   -1.1332 H         1 <0>         0.0685
     24 H8          2.6686   -0.5238   -0.3408 H         1 <0>         0.0622
     25 H9          2.4721   -0.0163   -3.3456 H         1 <0>         0.0488
     26 H10         3.9592   -0.3238   -2.4123 H         1 <0>         0.0656
     27 H11         0.7689   -2.1518   -3.4775 H         1 <0>         0.0490
     28 H12         1.3454   -3.6011   -2.6147 H         1 <0>         0.0658
     29 H13         1.1262   -2.4578   -0.4603 H         1 <0>         0.0626
     30 H14        -0.4166   -2.3276   -1.3396 H         1 <0>         0.0658
     31 H15         4.0359   -3.1895   -0.7089 H         1 <0>         0.1291
     32 H16         5.9544   -4.7010   -1.0090 H         1 <0>         0.1254
     33 H17         5.6873   -4.2011   -5.2469 H         1 <0>         0.1296
     34 H18         7.4634   -5.8015   -2.5433 H         1 <0>         0.4008
     35 H19         7.3583   -5.6053   -4.2085 H         1 <0>         0.3999
@<TRIPOS>BOND
     1    1    2 1
     2    1   17 1
     3    1   18 1
     4    1   19 1
     5    2    3 1
     6    2   20 1
     7    2   21 1
     8    3    8 1
     9    3    4 1
    10    3   22 1
    11    4    5 1
    12    4   23 1
    13    4   24 1
    14    5    6 1
    15    5   25 1
    16    5   26 1
    17    6    7 1
    18    6    9 1
    19    7    8 1
    20    7   27 1
    21    7   28 1
    22    8   29 1
    23    8   30 1
    24    9   14 ar
    25    9   10 ar
    26   10   11 ar
    27   10   31 1
    28   11   12 ar
    29   11   32 1
    30   12   13 ar
    31   12   16 1
    32   13   14 ar
    33   13   33 1
    34   14   15 1
    35   16   34 1
    36   16   35 1
@<TRIPOS>MOLECULE
ZINC62989375
   26    26     0     0     0
SMALL
USER_CHARGES

@<TRIPOS>ATOM
      1 C1         -0.3443    1.6725   -0.1051 C.3       1 <0>        -0.1564
      2 C2         -0.1842    0.1519   -0.0490 C.3       1 <0>        -0.1069
      3 C3         -1.5383   -0.5131   -0.3039 C.3       1 <0>        -0.0748
      4 C4         -1.3807   -2.0109   -0.2486 C.2       1 <0>         0.4334
      5 N1         -2.4653   -2.8207   -0.4483 N.pl3     1 <0>        -0.8749
      6 N2         -0.2123   -2.5342   -0.0109 N.2       1 <0>        -0.5643
      7 C5         -0.0391   -3.8927   -0.0952 C.ar      1 <0>         0.1521
      8 C6         -0.4412   -4.5805   -1.2407 C.ar      1 <0>        -0.1714
      9 C7         -0.2642   -5.9465   -1.3203 C.ar      1 <0>        -0.0787
     10 C8          0.3107   -6.6357   -0.2674 C.ar      1 <0>        -0.1297
     11 C9          0.7118   -5.9608    0.8727 C.ar      1 <0>        -0.0096
     12 C10         0.5452   -4.5917    0.9624 C.ar      1 <0>        -0.0495
     13 Cl1         1.0550   -3.7446    2.3894 Cl        1 <0>        -0.0375
     14 Cl2         1.4311   -6.8344    2.1891 Cl        1 <0>        -0.0474
     15 H1          0.6204    2.1463    0.0765 H         1 <0>         0.0582
     16 H2         -0.7123    1.9631   -1.0890 H         1 <0>         0.0531
     17 H3         -1.0549    1.9914    0.6574 H         1 <0>         0.0535
     18 H4          0.5265   -0.1670   -0.8115 H         1 <0>         0.0719
     19 H5          0.1838   -0.1386    0.9350 H         1 <0>         0.0742
     20 H6         -2.2490   -0.1942    0.4586 H         1 <0>         0.0925
     21 H7         -1.9064   -0.2226   -1.2879 H         1 <0>         0.0951
     22 H8         -3.3467   -2.4318   -0.5614 H         1 <0>         0.4020
     23 H9         -0.8905   -4.0445   -2.0637 H         1 <0>         0.1337
     24 H10        -0.5756   -6.4792   -2.2067 H         1 <0>         0.1379
     25 H11         0.4468   -7.7050   -0.3352 H         1 <0>         0.1412
     26 H12        -2.3528   -3.7838   -0.4767 H         1 <0>         0.4023
@<TRIPOS>BOND
     1    1    2 1
     2    1   15 1
     3    1   16 1
     4    1   17 1
     5    2    3 1
     6    2   18 1
     7    2   19 1
     8    3    4 1
     9    3   20 1
    10    3   21 1
    11    4    5 1
    12    4    6 2
    13    5   22 1
    14    5   26 1
    15    6    7 1
    16    7   12 ar
    17    7    8 ar
    18    8    9 ar
    19    8   23 1
    20    9   10 ar
    21    9   24 1
    22   10   11 ar
    23   10   25 1
    24   11   12 ar
    25   11   14 1
    26   12   13 1
@<TRIPOS>MOLECULE
ZINC37107323
   34    35     0     0     0
SMALL
USER_CHARGES

@<TRIPOS>ATOM
      1 C1         -0.0187    1.5258    0.0104 C.3       1 <0>        -0.1570
      2 C2          0.0021   -0.0041    0.0020 C.3       1 <0>        -0.1504
      3 C3          0.7421   -0.5109    1.2415 C.3       1 <0>        -0.0118
      4 N1          0.7620   -1.9797    1.2335 N.4       1 <0>        -0.5049
      5 C4          1.4725   -2.4664    2.4236 C.3       1 <0>         0.0056
      6 H1          2.4627   -2.0141    2.4779 H         1 <0>         0.1509
      7 C5          0.6668   -2.1285    3.6950 C.3       1 <0>        -0.1394
      8 C6          0.8786   -3.3555    4.6162 C.3       1 <0>        -0.1268
      9 C7          0.8580   -4.5398    3.6181 C.3       1 <0>        -0.1384
     10 C8          1.5952   -3.9994    2.3741 C.3       1 <0>         0.1220
     11 H2          1.1276   -4.3823    1.4670 H         1 <0>         0.1190
     12 N2          3.0061   -4.3915    2.4159 N.pl3     1 <0>        -0.4706
     13 C9          3.6807   -5.1009    1.4592 C.2       1 <0>        -0.0626
     14 C10         4.9470   -5.2383    1.8964 C.2       1 <0>        -0.0088
     15 N3          5.0430   -4.6295    3.0877 N.2       1 <0>        -0.4765
     16 C11         3.8855   -4.1156    3.4029 C.2       1 <0>         0.1834
     17 H3          1.0039    1.9031    0.0027 H         1 <0>         0.0678
     18 H4         -0.5459    1.8868   -0.8726 H         1 <0>         0.0791
     19 H5         -0.5289    1.8773    0.9072 H         1 <0>         0.0680
     20 H6         -1.0205   -0.3814    0.0098 H         1 <0>         0.0873
     21 H7          0.5123   -0.3556   -0.8948 H         1 <0>         0.0867
     22 H8          1.7647   -0.1336    1.2338 H         1 <0>         0.1326
     23 H9          0.2319   -0.1594    2.1383 H         1 <0>         0.1345
     24 H10        -0.1846   -2.3290    1.2406 H         1 <0>         0.4281
     25 H11         1.0573   -1.2262    4.1656 H         1 <0>         0.1070
     26 H12        -0.3900   -2.0086    3.4563 H         1 <0>         0.0957
     27 H13         1.8410   -3.2954    5.1245 H         1 <0>         0.0865
     28 H14         0.0650   -3.4430    5.3363 H         1 <0>         0.1002
     29 H15         1.3882   -5.3973    4.0326 H         1 <0>         0.0995
     30 H16        -0.1678   -4.8093    3.3670 H         1 <0>         0.1005
     31 H17         3.2753   -5.4782    0.5320 H         1 <0>         0.1804
     32 H18         5.7453   -5.7492    1.3787 H         1 <0>         0.1777
     33 H19         3.6666   -3.5635    4.3049 H         1 <0>         0.2058
     34 H20         1.2343   -2.3051    0.4033 H         1 <0>         0.4287
@<TRIPOS>BOND
     1    1    2 1
     2    1   17 1
     3    1   18 1
     4    1   19 1
     5    2    3 1
     6    2   20 1
     7    2   21 1
     8    3    4 1
     9    3   22 1
    10    3   23 1
    11    4    5 1
    12    4   24 1
    13    4   34 1
    14    5    6 1
    15    5   10 1
    16    5    7 1
    17    7    8 1
    18    7   25 1
    19    7   26 1
    20    8    9 1
    21    8   27 1
    22    8   28 1
    23    9   10 1
    24    9   29 1
    25    9   30 1
    26   10   11 1
    27   10   12 1
    28   12   16 1
    29   12   13 1
    30   13   14 2
    31   13   31 1
    32   14   15 1
    33   14   32 1
    34   15   16 2
    35   16   33 1
@<TRIPOS>MOLECULE
ZINC40932879
   29    29     0     0     0
SMALL
USER_CHARGES

@<TRIPOS>ATOM
      1 C1         -0.0187    1.5258    0.0104 C.3       1 <0>        -0.1569
      2 C2          0.0021   -0.0041    0.0020 C.3       1 <0>        -0.1513
      3 C3          0.7182   -0.4975   -1.2568 C.3       1 <0>        -0.0141
      4 N1          0.7381   -1.9663   -1.2649 N.4       1 <0>        -0.5084
      5 C4          1.4257   -2.4401   -2.4735 C.3       1 <0>         0.1208
      6 H1          0.9519   -2.0070   -3.3544 H         1 <0>         0.1462
      7 C5          2.8948   -2.0156   -2.4239 C.3       1 <0>        -0.1824
      8 C6          1.3392   -3.9429   -2.5442 C.2       1 <0>        -0.3350
      9 C7          1.0654   -4.8056   -1.4676 C.2       1 <0>         0.0709
     10 N2          1.0732   -6.0285   -1.9174 N.2       1 <0>        -0.2769
     11 O1          1.3542   -5.9808   -3.3047 O.3       1 <0>        -0.0582
     12 C8          1.5047   -4.6931   -3.6505 C.2       1 <0>         0.1461
     13 C9          1.8092   -4.1770   -5.0333 C.3       1 <0>        -0.1104
     14 H2          1.0039    1.9031    0.0027 H         1 <0>         0.0677
     15 H3         -0.5459    1.8868   -0.8726 H         1 <0>         0.0677
     16 H4         -0.5289    1.8773    0.9072 H         1 <0>         0.0784
     17 H5          0.5293   -0.3651    0.8851 H         1 <0>         0.0870
     18 H6         -1.0205   -0.3814    0.0098 H         1 <0>         0.0870
     19 H7          0.1910   -0.1364   -2.1398 H         1 <0>         0.1342
     20 H8          1.7408   -0.1202   -1.2645 H         1 <0>         0.1358
     21 H9          1.2261   -2.3006   -0.4474 H         1 <0>         0.4261
     22 H10         3.3686   -2.4487   -1.5430 H         1 <0>         0.0844
     23 H11         3.4050   -2.3671   -3.3207 H         1 <0>         0.1064
     24 H12         2.9574   -0.9286   -2.3728 H         1 <0>         0.0882
     25 H13         0.8813   -4.5066   -0.4463 H         1 <0>         0.1990
     26 H14         2.8891   -4.1202   -5.1702 H         1 <0>         0.1118
     27 H15         1.3840   -4.8530   -5.7751 H         1 <0>         0.1043
     28 H16         1.3748   -3.1847   -5.1545 H         1 <0>         0.1012
     29 H17        -0.2085   -2.3156   -1.2577 H         1 <0>         0.4305
@<TRIPOS>BOND
     1    1    2 1
     2    1   14 1
     3    1   15 1
     4    1   16 1
     5    2    3 1
     6    2   17 1
     7    2   18 1
     8    3    4 1
     9    3   19 1
    10    3   20 1
    11    4    5 1
    12    4   21 1
    13    4   29 1
    14    5    6 1
    15    5    7 1
    16    5    8 1
    17    7   22 1
    18    7   23 1
    19    7   24 1
    20    8   12 2
    21    8    9 1
    22    9   10 2
    23    9   25 1
    24   10   11 1
    25   11   12 1
    26   12   13 1
    27   13   26 1
    28   13   27 1
    29   13   28 1
@<TRIPOS>MOLECULE
ZINC45306553
   36    36     0     0     0
SMALL
USER_CHARGES

@<TRIPOS>ATOM
      1 C1          0.6436   -5.3455    2.6490 C.3       1 <0>        -0.1578
      2 C2         -0.7320   -5.3225    1.9795 C.3       1 <0>         0.0471
      3 N1         -0.9699   -3.9959    1.3950 N.3       1 <0>        -0.6770
      4 C3         -2.2844   -3.9364    0.7420 C.3       1 <0>         0.1727
      5 H1         -2.9922   -4.5557    1.2930 H         1 <0>         0.1122
      6 C4         -2.7797   -2.4889    0.7236 C.3       1 <0>        -0.0113
      7 N2         -2.8650   -1.9831    2.1001 N.4       1 <0>        -0.3857
      8 C5         -3.1999   -0.5542    2.0749 C.3       1 <0>        -0.0060
      9 C6         -3.2104   -0.0036    3.5025 C.3       1 <0>        -0.1442
     10 C7         -4.2554   -0.7599    4.3278 C.3       1 <0>        -0.1048
     11 C8         -3.9384   -2.2576    4.2857 C.3       1 <0>        -0.1427
     12 C9         -3.9009   -2.7247    2.8291 C.3       1 <0>        -0.0185
     13 C10        -4.2162   -0.2692    5.7765 C.3       1 <0>        -0.1548
     14 C11        -2.1692   -4.4332   -0.6389 C.1       1 <0>         0.1903
     15 N3         -2.0803   -4.8165   -1.7045 N.1       1 <0>        -0.3579
     16 H2          0.8201   -6.3298    3.0827 H         1 <0>         0.0760
     17 H3          1.4126   -5.1324    1.9066 H         1 <0>         0.0722
     18 H4          0.6779   -4.5908    3.4347 H         1 <0>         0.0578
     19 H5         -0.7663   -6.0772    1.1938 H         1 <0>         0.0885
     20 H6         -1.5010   -5.5356    2.7220 H         1 <0>         0.0485
     21 H7         -0.8794   -3.2721    2.0922 H         1 <0>         0.3383
     22 H8         -2.0838   -1.8740    0.1530 H         1 <0>         0.1528
     23 H9         -3.7653   -2.4480    0.2598 H         1 <0>         0.1524
     24 H10        -2.4571   -0.0178    1.4845 H         1 <0>         0.1357
     25 H11        -4.1846   -0.4202    1.6270 H         1 <0>         0.1339
     26 H12        -2.2261   -0.1369    3.9513 H         1 <0>         0.0898
     27 H13        -3.4611    1.0570    3.4817 H         1 <0>         0.1162
     28 H14        -5.2466   -0.5853    3.9093 H         1 <0>         0.0905
     29 H15        -2.9692   -2.4377    4.7508 H         1 <0>         0.0890
     30 H16        -4.7094   -2.8081    4.8248 H         1 <0>         0.1155
     31 H17        -4.8706   -2.5444    2.3651 H         1 <0>         0.1375
     32 H18        -3.6757   -3.7906    2.7955 H         1 <0>         0.1279
     33 H19        -4.4351    0.7983    5.8045 H         1 <0>         0.0685
     34 H20        -4.9603   -0.8082    6.3629 H         1 <0>         0.0680
     35 H21        -3.2254   -0.4480    6.1940 H         1 <0>         0.0624
     36 H22        -1.9757   -2.1099    2.5597 H         1 <0>         0.4170
@<TRIPOS>BOND
     1    1    2 1
     2    1   16 1
     3    1   17 1
     4    1   18 1
     5    2    3 1
     6    2   19 1
     7    2   20 1
     8    3    4 1
     9    3   21 1
    10    4    5 1
    11    4    6 1
    12    4   14 1
    13    6    7 1
    14    6   22 1
    15    6   23 1
    16    7   12 1
    17    7    8 1
    18    7   36 1
    19    8    9 1
    20    8   24 1
    21    8   25 1
    22    9   10 1
    23    9   26 1
    24    9   27 1
    25   10   11 1
    26   10   13 1
    27   10   28 1
    28   11   12 1
    29   11   29 1
    30   11   30 1
    31   12   31 1
    32   12   32 1
    33   13   33 1
    34   13   34 1
    35   13   35 1
    36   14   15 3
@<TRIPOS>MOLECULE
ZINC52382251
   36    36     0     0     0
SMALL
USER_CHARGES

@<TRIPOS>ATOM
      1 C1          0.1718    1.6232   -0.0736 C.3       1 <0>        -0.1649
      2 C2         -0.0156    0.1048   -0.0566 C.3       1 <0>        -0.1532
      3 C3          0.6211   -0.5017   -1.3087 C.3       1 <0>         0.0484
      4 H1          1.6611   -0.1829   -1.3783 H         1 <0>         0.1074
      5 C4          0.5602   -2.0281   -1.2235 C.3       1 <0>         0.0021
      6 N1          1.0880   -2.6093   -2.4651 N.4       1 <0>        -0.5034
      7 C5          0.9333   -4.0696   -2.4266 C.3       1 <0>        -0.0472
      8 N2         -0.1108   -0.0481   -2.4989 N.3       1 <0>        -0.5485
      9 C6          0.3750    1.2650   -2.9475 C.3       1 <0>        -0.0028
     10 C7         -0.3713    1.6713   -4.2210 C.3       1 <0>         0.0619
     11 O1         -1.7780    1.6736   -3.9631 O.3       1 <0>        -0.3738
     12 C8         -2.2850    0.4102   -3.5249 C.3       1 <0>         0.0904
     13 H2         -2.1176   -0.3378   -4.2999 H         1 <0>         0.0652
     14 C9         -1.5582   -0.0089   -2.2443 C.3       1 <0>         0.0068
     15 C10        -3.7846    0.5304   -3.2462 C.3       1 <0>        -0.1520
     16 H3          1.1815    1.8609   -0.4084 H         1 <0>         0.0622
     17 H4         -0.5517    2.0710   -0.7549 H         1 <0>         0.0661
     18 H5          0.0190    2.0194    0.9303 H         1 <0>         0.0698
     19 H6          0.4616   -0.3103    0.8311 H         1 <0>         0.0811
     20 H7         -1.0800   -0.1298   -0.0403 H         1 <0>         0.0822
     21 H8          1.1594   -2.3691   -0.3793 H         1 <0>         0.1363
     22 H9         -0.4741   -2.3433   -1.0858 H         1 <0>         0.1288
     23 H10         0.5791   -2.2378   -3.2532 H         1 <0>         0.4367
     24 H11         1.4830   -4.4709   -1.5752 H         1 <0>         0.1223
     25 H12        -0.1228   -4.3207   -2.3282 H         1 <0>         0.1216
     26 H13         1.3250   -4.5009   -3.3479 H         1 <0>         0.1260
     27 H14         0.1948    2.0054   -2.1681 H         1 <0>         0.0768
     28 H15         1.4435    1.2064   -3.1547 H         1 <0>         0.0909
     29 H16        -0.0554    2.6692   -4.5253 H         1 <0>         0.1064
     30 H17        -0.1482    0.9600   -5.0162 H         1 <0>         0.0593
     31 H18        -1.9008   -0.9974   -1.9382 H         1 <0>         0.0852
     32 H19        -1.7693    0.7111   -1.4537 H         1 <0>         0.0696
     33 H20        -4.3005    0.8322   -4.1578 H         1 <0>         0.0737
     34 H21        -4.1705   -0.4328   -2.9123 H         1 <0>         0.0742
     35 H22        -3.9513    1.2774   -2.4701 H         1 <0>         0.0668
     36 H23         2.0656   -2.3769   -2.5562 H         1 <0>         0.4278
@<TRIPOS>BOND
     1    1    2 1
     2    1   16 1
     3    1   17 1
     4    1   18 1
     5    2    3 1
     6    2   19 1
     7    2   20 1
     8    3    4 1
     9    3    5 1
    10    3    8 1
    11    5    6 1
    12    5   21 1
    13    5   22 1
    14    6    7 1
    15    6   23 1
    16    6   36 1
    17    7   24 1
    18    7   25 1
    19    7   26 1
    20    8   14 1
    21    8    9 1
    22    9   10 1
    23    9   27 1
    24    9   28 1
    25   10   11 1
    26   10   29 1
    27   10   30 1
    28   11   12 1
    29   12   13 1
    30   12   14 1
    31   12   15 1
    32   14   31 1
    33   14   32 1
    34   15   33 1
    35   15   34 1
    36   15   35 1
@<TRIPOS>MOLECULE
ZINC62919945
   33    33     0     0     0
SMALL
USER_CHARGES

@<TRIPOS>ATOM
      1 C1         -0.0187    1.5258    0.0104 C.3       1 <0>        -0.1728
      2 C2          0.0021   -0.0041    0.0020 C.3       1 <0>        -0.1143
      3 C3          0.7421   -0.5109    1.2415 C.3       1 <0>        -0.0727
      4 C4         -0.0247   -0.1140    2.5239 C.3       1 <0>        -0.1383
      5 C5         -0.8403   -1.3907    2.8490 C.3       1 <0>        -0.0029
      6 N1          0.0912   -2.4900    2.4884 N.4       1 <0>        -0.5152
      7 C6          0.7744   -2.0505    1.2525 C.3       1 <0>        -0.0035
      8 C7          2.1436    0.0419    1.2755 C.2       1 <0>         0.4718
      9 O1          3.0896   -0.7097    1.2803 O.2       1 <0>        -0.4957
     10 O2          2.3410    1.3694    1.3003 O.3       1 <0>        -0.3259
     11 C8          3.6956    1.8234    1.3317 C.3       1 <0>         0.0762
     12 C9          4.2049    2.0085   -0.0991 C.3       1 <0>        -0.1752
     13 C10         3.7690    3.1582    2.0759 C.3       1 <0>        -0.1531
     14 H1          1.0039    1.9031    0.0027 H         1 <0>         0.0834
     15 H2         -0.5459    1.8868   -0.8726 H         1 <0>         0.0709
     16 H3         -0.5289    1.8773    0.9072 H         1 <0>         0.0636
     17 H4         -1.0205   -0.3814    0.0098 H         1 <0>         0.0893
     18 H5          0.5123   -0.3556   -0.8948 H         1 <0>         0.0845
     19 H6          0.6690    0.1168    3.3323 H         1 <0>         0.1046
     20 H7         -0.6883    0.7289    2.3312 H         1 <0>         0.1354
     21 H8         -1.0883   -1.4290    3.9097 H         1 <0>         0.1456
     22 H9         -1.7431   -1.4360    2.2399 H         1 <0>         0.1426
     23 H10         0.7644   -2.6318    3.2265 H         1 <0>         0.4346
     24 H11         0.2495   -2.4391    0.3798 H         1 <0>         0.1485
     25 H12         1.8068   -2.4002    1.2544 H         1 <0>         0.1557
     26 H13         4.3138    1.0868    1.8450 H         1 <0>         0.0872
     27 H14         3.5867    2.7450   -0.6123 H         1 <0>         0.0708
     28 H15         5.2381    2.3547   -0.0751 H         1 <0>         0.0826
     29 H16         4.1526    1.0575   -0.6292 H         1 <0>         0.0607
     30 H17         3.4062    3.0263    3.0953 H         1 <0>         0.0655
     31 H18         4.8023    3.5044    2.0999 H         1 <0>         0.0858
     32 H19         3.1508    3.8947    1.5627 H         1 <0>         0.0723
     33 H20        -0.4240   -3.3405    2.3174 H         1 <0>         0.4382
@<TRIPOS>BOND
     1    1    2 1
     2    1   14 1
     3    1   15 1
     4    1   16 1
     5    2    3 1
     6    2   17 1
     7    2   18 1
     8    3    7 1
     9    3    4 1
    10    3    8 1
    11    4    5 1
    12    4   19 1
    13    4   20 1
    14    5    6 1
    15    5   21 1
    16    5   22 1
    17    6    7 1
    18    6   23 1
    19    6   33 1
    20    7   24 1
    21    7   25 1
    22    8    9 2
    23    8   10 1
    24   10   11 1
    25   11   12 1
    26   11   13 1
    27   11   26 1
    28   12   27 1
    29   12   28 1
    30   12   29 1
    31   13   30 1
    32   13   31 1
    33   13   32 1
@<TRIPOS>MOLECULE
ZINC00086867
   38    40     0     0     0
SMALL
USER_CHARGES

@<TRIPOS>ATOM
      1 C1         -0.0187    1.5258    0.0104 C.3       1 <0>        -0.1702
      2 C2          0.0021   -0.0041    0.0020 C.3       1 <0>         0.1034
      3 N1         -1.3723   -0.5112    0.0124 N.am      1 <0>        -0.5506
      4 C3         -2.0928   -0.7814    1.1763 C.ar      1 <0>         0.1598
      5 C4         -1.7369   -0.6559    2.5180 C.ar      1 <0>        -0.1427
      6 C5         -2.6374   -0.9917    3.5075 C.ar      1 <0>        -0.0731
      7 C6         -3.8982   -1.4547    3.1779 C.ar      1 <0>        -0.1445
      8 C7         -4.2589   -1.5820    1.8478 C.ar      1 <0>        -0.0421
      9 C8         -3.3620   -1.2475    0.8582 C.ar      1 <0>        -0.1380
     10 C9         -3.4408   -1.2702   -0.6509 C.3       1 <0>         0.1610
     11 C10        -2.0858   -0.7640   -1.0978 C.2       1 <0>         0.5033
     12 O1         -1.7137   -0.6159   -2.2426 O.2       1 <0>        -0.4658
     13 C11        -4.5471   -0.3354   -1.1441 C.3       1 <0>        -0.1639
     14 C12        -4.6050   -0.3760   -2.6494 C.2       1 <0>         0.4081
     15 O2         -3.8376   -1.0826   -3.2666 O.2       1 <0>        -0.4166
     16 C13        -5.5960    0.4444   -3.3720 C.ar      1 <0>         0.0441
     17 C14        -5.6488    0.3984   -4.7657 C.ar      1 <0>        -0.1105
     18 C15        -6.5851    1.1748   -5.4294 C.ar      1 <0>        -0.0840
     19 C16        -7.4365    1.9705   -4.6785 C.ar      1 <0>        -0.1416
     20 C17        -7.3283    1.9672   -3.2961 C.ar      1 <0>         0.0962
     21 N2         -6.4349    1.2173   -2.6901 N.ar      1 <0>        -0.4458
     22 O3         -3.6621   -2.6015   -1.1207 O.3       1 <0>        -0.5280
     23 H1          1.0039    1.9031    0.0027 H         1 <0>         0.0755
     24 H2         -0.5459    1.8868   -0.8726 H         1 <0>         0.0599
     25 H3         -0.5289    1.8773    0.9072 H         1 <0>         0.0617
     26 H4          0.5123   -0.3556   -0.8948 H         1 <0>         0.0911
     27 H5          0.5293   -0.3651    0.8851 H         1 <0>         0.0879
     28 H6         -0.7541   -0.2954    2.7834 H         1 <0>         0.1281
     29 H7         -2.3560   -0.8928    4.5455 H         1 <0>         0.1337
     30 H8         -4.5994   -1.7166    3.9564 H         1 <0>         0.1333
     31 H9         -5.2427   -1.9429    1.5865 H         1 <0>         0.1320
     32 H10        -5.5045   -0.6578   -0.7348 H         1 <0>         0.1275
     33 H11        -4.3358    0.6824   -0.8159 H         1 <0>         0.1171
     34 H12        -4.9694   -0.2330   -5.3190 H         1 <0>         0.1481
     35 H13        -6.6499    1.1607   -6.5073 H         1 <0>         0.1443
     36 H14        -8.1770    2.5875   -5.1658 H         1 <0>         0.1438
     37 H15        -7.9904    2.5862   -2.7088 H         1 <0>         0.1663
     38 H16        -3.7210   -2.6742   -2.0832 H         1 <0>         0.3910
@<TRIPOS>BOND
     1    1    2 1
     2    1   23 1
     3    1   24 1
     4    1   25 1
     5    2    3 1
     6    2   26 1
     7    2   27 1
     8    3   11 am
     9    3    4 1
    10    4    9 ar
    11    4    5 ar
    12    5    6 ar
    13    5   28 1
    14    6    7 ar
    15    6   29 1
    16    7    8 ar
    17    7   30 1
    18    8    9 ar
    19    8   31 1
    20    9   10 1
    21   10   11 1
    22   10   13 1
    23   10   22 1
    24   11   12 2
    25   13   14 1
    26   13   32 1
    27   13   33 1
    28   14   15 2
    29   14   16 1
    30   16   21 ar
    31   16   17 ar
    32   17   18 ar
    33   17   34 1
    34   18   19 ar
    35   18   35 1
    36   19   20 ar
    37   19   36 1
    38   20   21 ar
    39   20   37 1
    40   22   38 1
@<TRIPOS>MOLECULE
ZINC45006081
   38    40     0     0     0
SMALL
USER_CHARGES

@<TRIPOS>ATOM
      1 C1         -0.0178    1.4608    0.0101 C.3       1 <0>         0.0887
      2 N1          0.0021   -0.0041    0.0020 N.am      1 <0>        -0.6220
      3 C2          1.2806   -0.7192   -0.0140 C.3       1 <0>         0.0750
      4 C3         -1.1558   -0.6938    0.0094 C.2       1 <0>         0.5258
      5 O1         -2.2142   -0.1017    0.0227 O.2       1 <0>        -0.5312
      6 C4         -1.1354   -2.2006    0.0011 C.3       1 <0>        -0.1512
      7 C5         -2.5708   -2.7302    0.0119 C.3       1 <0>         0.1067
      8 N2         -2.5509   -4.1950    0.0039 N.am      1 <0>        -0.5045
      9 C6         -2.5477   -4.8439   -1.1748 C.2       1 <0>         0.5619
     10 O2         -2.5612   -4.2224   -2.2214 O.2       1 <0>        -0.4747
     11 C7         -2.5269   -6.3225   -1.1811 C.2       1 <0>        -0.2191
     12 C8         -2.5196   -7.2273   -2.3407 C.2       1 <0>        -0.0567
     13 C9         -2.5007   -8.5339   -2.0333 C.2       1 <0>        -0.2145
     14 S1         -2.4902   -8.5769   -0.2588 S.3       1 <0>         0.3139
     15 C10        -2.5120   -6.9396    0.0650 C.2       1 <0>         0.0038
     16 N3         -2.5163   -6.2009    1.2207 N.pl3     1 <0>        -0.5393
     17 C11        -2.5308   -4.8554    1.1731 C.2       1 <0>         0.5304
     18 S2         -2.5298   -3.9664    2.6362 S.2       1 <0>        -0.5208
     19 C12        -2.4982   -9.4010   -3.2634 C.3       1 <0>        -0.0315
     20 C13        -2.9508   -8.4611   -4.4031 C.3       1 <0>        -0.1168
     21 C14        -2.5253   -7.0814   -3.8608 C.3       1 <0>        -0.0626
     22 H1          1.0048    1.8381    0.0023 H         1 <0>         0.0765
     23 H2         -0.5450    1.8219   -0.8730 H         1 <0>         0.0626
     24 H3         -0.5280    1.8123    0.9069 H         1 <0>         0.0638
     25 H4          1.6074   -0.9021    1.0096 H         1 <0>         0.0612
     26 H5          1.1583   -1.6705   -0.5318 H         1 <0>         0.0706
     27 H6          2.0272   -0.1171   -0.5318 H         1 <0>         0.0761
     28 H7         -0.6252   -2.5521   -0.8957 H         1 <0>         0.0969
     29 H8         -0.6082   -2.5617    0.8841 H         1 <0>         0.1077
     30 H9         -3.0810   -2.3787    0.9087 H         1 <0>         0.1361
     31 H10        -3.0980   -2.3691   -0.8711 H         1 <0>         0.1146
     32 H11        -1.4953   -9.7803   -3.4591 H         1 <0>         0.0918
     33 H12        -3.2018  -10.2255   -3.1487 H         1 <0>         0.0861
     34 H13        -2.4283   -8.6936   -5.3310 H         1 <0>         0.0900
     35 H14        -4.0307   -8.5092   -4.5427 H         1 <0>         0.0807
     36 H15        -3.2427   -6.3190   -4.1642 H         1 <0>         0.0843
     37 H16        -1.5280   -6.8263   -4.2192 H         1 <0>         0.0882
     38 H17        -2.5062   -6.6516    2.0796 H         1 <0>         0.4516
@<TRIPOS>BOND
     1    1    2 1
     2    1   22 1
     3    1   23 1
     4    1   24 1
     5    2    3 1
     6    2    4 am
     7    3   25 1
     8    3   26 1
     9    3   27 1
    10    4    5 2
    11    4    6 1
    12    6    7 1
    13    6   28 1
    14    6   29 1
    15    7    8 1
    16    7   30 1
    17    7   31 1
    18    8   17 1
    19    8    9 am
    20    9   10 2
    21    9   11 1
    22   11   15 2
    23   11   12 1
    24   12   21 1
    25   12   13 2
    26   13   14 1
    27   13   19 1
    28   14   15 1
    29   15   16 1
    30   16   17 1
    31   16   38 1
    32   17   18 2
    33   19   20 1
    34   19   32 1
    35   19   33 1
    36   20   21 1
    37   20   34 1
    38   20   35 1
    39   21   36 1
    40   21   37 1
@<TRIPOS>MOLECULE
ZINC51639627
   38    39     0     0     0
SMALL
USER_CHARGES

@<TRIPOS>ATOM
      1 C1         -0.0213    1.5169    0.0194 C.3       1 <0>        -0.1585
      2 C2         -0.0022   -0.0129    0.0043 C.3       1 <0>        -0.0554
      3 H1          0.5225   -0.3784    0.8871 H         1 <0>         0.1273
      4 C3         -1.4166   -0.5330    0.0094 C.2       1 <0>         0.4939
      5 O1         -1.8712   -1.0727   -0.9849 O.co2     1 <0>        -0.6699
      6 O2         -2.1062   -0.4141    1.0078 O.co2     1 <0>        -0.6340
      7 N1          0.6878   -0.4822   -1.2047 N.4       1 <0>        -0.3567
      8 C4          0.6957   -1.9504   -1.2229 C.3       1 <0>        -0.0243
      9 C5          1.3125   -2.4406   -2.5370 C.3       1 <0>         0.0955
     10 N2          2.6398   -1.8243   -2.6877 N.am      1 <0>        -0.6297
     11 C6          2.7503   -0.3668   -2.5214 C.3       1 <0>         0.0860
     12 C7          2.0656    0.0255   -1.2080 C.3       1 <0>        -0.0303
     13 C8          3.7239   -2.5738   -2.9696 C.2       1 <0>         0.5655
     14 O3          3.6316   -3.7877   -3.0085 O.2       1 <0>        -0.5276
     15 C9          4.9681   -1.9510   -3.2202 C.2       1 <0>        -0.2465
     16 C10         6.0357   -2.6970   -3.6026 C.2       1 <0>         0.0625
     17 C11         7.2806   -2.0739   -3.8533 C.2       1 <0>        -0.1933
     18 C12         8.4827   -2.6469   -4.2549 C.2       1 <0>        -0.0888
     19 C13         9.5315   -1.7759   -4.4191 C.2       1 <0>        -0.1643
     20 C14         9.3331   -0.4524   -4.1859 C.2       1 <0>        -0.1710
     21 S1          7.7156   -0.3486   -3.7444 S.3       1 <0>         0.2434
     22 Cl1        10.4862    0.8383   -4.3212 Cl        1 <0>         0.0263
     23 H2          1.0018    1.8931    0.0157 H         1 <0>         0.0673
     24 H3         -0.5460    1.8824   -0.8634 H         1 <0>         0.0732
     25 H4         -0.5332    1.8651    0.9165 H         1 <0>         0.1030
     26 H5          1.2851   -2.3211   -0.3842 H         1 <0>         0.1163
     27 H6         -0.3263   -2.3204   -1.1407 H         1 <0>         0.1694
     28 H7          1.4132   -3.5257   -2.5121 H         1 <0>         0.1307
     29 H8          0.6759   -2.1480   -3.3720 H         1 <0>         0.0945
     30 H9          3.8015   -0.0809   -2.4861 H         1 <0>         0.1241
     31 H10         2.2588    0.1352   -3.3548 H         1 <0>         0.0955
     32 H11         2.0530    1.1114   -1.1149 H         1 <0>         0.1398
     33 H12         2.6135   -0.4050   -0.3698 H         1 <0>         0.1264
     34 H13         5.0692   -0.8817   -3.1073 H         1 <0>         0.1282
     35 H14         5.9347   -3.7664   -3.7155 H         1 <0>         0.1560
     36 H15         8.5847   -3.7084   -4.4262 H         1 <0>         0.1567
     37 H16        10.5006   -2.1380   -4.7290 H         1 <0>         0.1473
     38 H17         0.2029   -0.1408   -2.0210 H         1 <0>         0.4214
@<TRIPOS>BOND
     1    1    2 1
     2    1   23 1
     3    1   24 1
     4    1   25 1
     5    2    3 1
     6    2    4 1
     7    2    7 1
     8    4    5 2
     9    4    6 1
    10    7   12 1
    11    7    8 1
    12    7   38 1
    13    8    9 1
    14    8   26 1
    15    8   27 1
    16    9   10 1
    17    9   28 1
    18    9   29 1
    19   10   11 1
    20   10   13 am
    21   11   12 1
    22   11   30 1
    23   11   31 1
    24   12   32 1
    25   12   33 1
    26   13   14 2
    27   13   15 1
    28   15   16 2
    29   15   34 1
    30   16   17 1
    31   16   35 1
    32   17   21 1
    33   17   18 2
    34   18   19 1
    35   18   36 1
    36   19   20 2
    37   19   37 1
    38   20   21 1
    39   20   22 1
@<TRIPOS>MOLECULE
ZINC63098105
   39    39     0     0     0
SMALL
USER_CHARGES

@<TRIPOS>ATOM
      1 C1         -0.0184    1.5028    0.0103 C.3       1 <0>        -0.1168
      2 C2          0.0021   -0.0041    0.0020 C.ar      1 <0>        -0.0596
      3 C3          0.0058   -0.6890   -1.1960 C.ar      1 <0>        -0.0102
      4 C4          0.0246   -2.0720   -1.2053 C.ar      1 <0>        -0.6736
      5 C5          0.0402   -2.7777   -0.0152 C.ar      1 <0>        -0.0253
      6 C6          0.0366   -2.1050    1.1892 C.ar      1 <0>        -0.1121
      7 C7          0.0231   -0.7096    1.2055 C.ar      1 <0>         0.0731
      8 C8          0.0253   -0.0050    2.4521 C.1       1 <0>        -0.1215
      9 C9          0.0271    0.5727    3.4742 C.1       1 <0>        -0.1436
     10 C10         0.0293    1.2970    4.7556 C.3       1 <0>         0.1899
     11 O1          0.0523    0.3587    5.8331 O.3       1 <0>        -0.5669
     12 S1          0.0281   -2.9390   -2.7392 S.o2      1 <0>         2.6874
     13 O2         -0.5038   -4.2303   -2.4771 O.2       1 <0>        -0.9480
     14 O3         -0.5400   -2.0622   -3.7025 O.2       1 <0>        -0.9511
     15 N1          1.6108   -3.1583   -3.1741 N.pl3     1 <0>        -0.9983
     16 C11         2.3294   -4.3598   -2.7422 C.3       1 <0>         0.0877
     17 C12         2.2925   -2.1510   -3.9906 C.3       1 <0>         0.1471
     18 H1          1.6035   -1.3359   -4.2122 H         1 <0>         0.1099
     19 C13         2.7651   -2.7891   -5.2984 C.3       1 <0>        -0.1590
     20 C14         3.4990   -1.6048   -3.2245 C.3       1 <0>        -0.0414
     21 C15         3.0352   -0.8861   -2.0265 C.1       1 <0>         0.1832
     22 N2          2.6773   -0.3316   -1.1019 N.1       1 <0>        -0.4084
     23 H2          1.0042    1.8801    0.0026 H         1 <0>         0.0794
     24 H3         -0.5455    1.8639   -0.8728 H         1 <0>         0.0720
     25 H4         -0.5286    1.8543    0.9071 H         1 <0>         0.0678
     26 H5         -0.0063   -0.1440   -2.1283 H         1 <0>         0.1369
     27 H6          0.0548   -3.8575   -0.0292 H         1 <0>         0.1430
     28 H7          0.0481   -2.6570    2.1174 H         1 <0>         0.1361
     29 H8          0.9112    1.9352    4.8107 H         1 <0>         0.0779
     30 H9         -0.8685    1.9109    4.8276 H         1 <0>         0.0782
     31 H10         0.0550    0.7665    6.7099 H         1 <0>         0.3913
     32 H11         2.2057   -5.1449   -3.4881 H         1 <0>         0.0679
     33 H12         3.3887   -4.1289   -2.6299 H         1 <0>         0.0780
     34 H13         1.9283   -4.6994   -1.7873 H         1 <0>         0.0732
     35 H14         3.2723   -2.0396   -5.9059 H         1 <0>         0.0767
     36 H15         3.4541   -3.6041   -5.0768 H         1 <0>         0.0687
     37 H16         1.9056   -3.1783   -5.8442 H         1 <0>         0.0702
     38 H17         4.1440   -2.4310   -2.9256 H         1 <0>         0.1158
     39 H18         4.0570   -0.9215   -3.8647 H         1 <0>         0.1244
@<TRIPOS>BOND
     1    1    2 1
     2    1   23 1
     3    1   24 1
     4    1   25 1
     5    2    7 ar
     6    2    3 ar
     7    3    4 ar
     8    3   26 1
     9    4    5 ar
    10    4   12 1
    11    5    6 ar
    12    5   27 1
    13    6    7 ar
    14    6   28 1
    15    7    8 1
    16    8    9 3
    17    9   10 1
    18   10   11 1
    19   10   29 1
    20   10   30 1
    21   11   31 1
    22   12   13 2
    23   12   14 2
    24   12   15 1
    25   15   16 1
    26   15   17 1
    27   16   32 1
    28   16   33 1
    29   16   34 1
    30   17   18 1
    31   17   19 1
    32   17   20 1
    33   19   35 1
    34   19   36 1
    35   19   37 1
    36   20   21 1
    37   20   38 1
    38   20   39 1
    39   21   22 3
@<TRIPOS>MOLECULE
ZINC67048866
   44    45     0     0     0
SMALL
USER_CHARGES

@<TRIPOS>ATOM
      1 C1         -0.2740    1.5058   -0.7344 C.3       1 <0>        -0.1375
      2 C2         -0.1715   -0.0193   -0.6674 C.3       1 <0>        -0.0995
      3 C3          1.1387   -0.4128    0.0176 C.3       1 <0>        -0.1595
      4 C4         -1.3518   -0.5751    0.1318 C.3       1 <0>         0.1299
      5 H1         -1.3631   -0.1243    1.1242 H         1 <0>         0.1119
      6 C5         -1.2117   -2.0700    0.2608 C.2       1 <0>         0.5196
      7 O1         -1.6531   -2.7973   -0.6036 O.2       1 <0>        -0.5320
      8 N1         -0.5959   -2.5988    1.3367 N.am      1 <0>        -0.6051
      9 C6          0.0378   -1.7306    2.3384 C.3       1 <0>         0.0943
     10 C7         -0.5153   -2.0883    3.7215 C.3       1 <0>        -0.1370
     11 C8         -0.3198   -3.5851    3.9732 C.3       1 <0>        -0.1075
     12 C9         -1.0920   -4.3860    2.9223 C.3       1 <0>        -0.0085
     13 H2         -2.1491   -4.1244    2.9699 H         1 <0>         0.0974
     14 C10        -0.5507   -4.0542    1.5333 C.3       1 <0>         0.1256
     15 C11        -0.9259   -5.8596    3.1908 C.2       1 <0>         0.0559
     16 N2          0.1800   -6.5602    3.2279 N.2       1 <0>        -0.5107
     17 C12         0.1640   -7.8543    3.4779 C.2       1 <0>         0.0344
     18 C13        -1.0491   -8.4243    3.6943 C.2       1 <0>        -0.2282
     19 S1         -2.1159   -7.0026    3.5228 S.3       1 <0>         0.1067
     20 N3         -2.6031   -0.2600   -0.5619 N.am      1 <0>        -0.7183
     21 C14        -3.1997    0.9327   -0.3672 C.2       1 <0>         0.5143
     22 O2         -2.7007    1.7451    0.3825 O.2       1 <0>        -0.5377
     23 C15        -4.4868    1.2569   -1.0808 C.3       1 <0>        -0.1750
     24 H3          0.5669    1.9018   -1.3038 H         1 <0>         0.0537
     25 H4         -1.2075    1.7862   -1.2224 H         1 <0>         0.0568
     26 H5         -0.2544    1.9160    0.2753 H         1 <0>         0.0643
     27 H6         -0.1911   -0.4294   -1.6771 H         1 <0>         0.0795
     28 H7          1.1853    0.0476    1.0045 H         1 <0>         0.0642
     29 H8          1.1839   -1.4970    0.1199 H         1 <0>         0.0594
     30 H9          1.9805   -0.0692   -0.5837 H         1 <0>         0.0658
     31 H10         1.1168   -1.8847    2.3254 H         1 <0>         0.0815
     32 H11        -0.1873   -0.6882    2.1132 H         1 <0>         0.0955
     33 H12         0.0158   -1.5187    4.4841 H         1 <0>         0.0871
     34 H13        -1.5778   -1.8483    3.7616 H         1 <0>         0.0715
     35 H14         0.7407   -3.8288    3.9085 H         1 <0>         0.0798
     36 H15        -0.6902   -3.8377    4.9667 H         1 <0>         0.0717
     37 H16        -1.1640   -4.5442    0.7771 H         1 <0>         0.0961
     38 H17         0.4792   -4.4019    1.4531 H         1 <0>         0.0832
     39 H18         1.0742   -8.4348    3.5089 H         1 <0>         0.1739
     40 H19        -1.2992   -9.4518    3.9132 H         1 <0>         0.1975
     41 H20        -3.0021   -0.9097   -1.1615 H         1 <0>         0.4102
     42 H21        -5.2505    0.5315   -0.8003 H         1 <0>         0.0894
     43 H22        -4.8157    2.2576   -0.8004 H         1 <0>         0.0953
     44 H23        -4.3252    1.2161   -2.1580 H         1 <0>         0.0899
@<TRIPOS>BOND
     1    1    2 1
     2    1   24 1
     3    1   25 1
     4    1   26 1
     5    2    3 1
     6    2    4 1
     7    2   27 1
     8    3   28 1
     9    3   29 1
    10    3   30 1
    11    4    5 1
    12    4    6 1
    13    4   20 1
    14    6    7 2
    15    6    8 am
    16    8   14 1
    17    8    9 1
    18    9   10 1
    19    9   31 1
    20    9   32 1
    21   10   11 1
    22   10   33 1
    23   10   34 1
    24   11   12 1
    25   11   35 1
    26   11   36 1
    27   12   13 1
    28   12   14 1
    29   12   15 1
    30   14   37 1
    31   14   38 1
    32   15   19 1
    33   15   16 2
    34   16   17 1
    35   17   18 2
    36   17   39 1
    37   18   19 1
    38   18   40 1
    39   20   21 am
    40   20   41 1
    41   21   22 2
    42   21   23 1
    43   23   42 1
    44   23   43 1
    45   23   44 1
@<TRIPOS>MOLECULE
ZINC36749117
   33    34     0     0     0
SMALL
USER_CHARGES

@<TRIPOS>ATOM
      1 C1          1.7027    0.4250    1.3190 C.3       1 <0>        -0.0703
      2 C2          0.7184   -0.4252    0.5579 C.2       1 <0>         0.0353
      3 C3          1.0270   -1.5785   -0.1725 C.2       1 <0>         0.0831
      4 C4         -0.1330   -2.0548   -0.7098 C.2       1 <0>         0.2120
      5 N1         -1.1350   -1.2186   -0.3226 N.pl3     1 <0>        -0.3723
      6 N2         -0.5712   -0.2130    0.4727 N.2       1 <0>        -0.2566
      7 C5         -2.5518   -1.3500   -0.6716 C.3       1 <0>         0.1090
      8 N3         -0.2678   -3.1914   -1.5108 N.pl3     1 <0>        -0.6638
      9 C6         -0.4830   -4.4391   -0.9218 C.ar      1 <0>         0.2246
     10 C7         -0.4428   -4.5720    0.4617 C.ar      1 <0>        -0.1785
     11 C8         -0.6560   -5.8057    1.0453 C.ar      1 <0>        -0.0568
     12 C9         -0.9099   -6.9118    0.2573 C.ar      1 <0>        -0.1804
     13 C10        -0.9511   -6.7865   -1.1267 C.ar      1 <0>        -0.0398
     14 C11        -0.7429   -5.5468   -1.7163 C.ar      1 <0>        -0.1656
     15 S1         -1.2744   -8.1978   -2.1309 S.3       1 <0>        -0.1179
     16 C12        -1.4813   -9.5478   -0.9370 C.3       1 <0>        -0.1433
     17 N4          2.3112   -2.1480   -0.3261 N.pl3     1 <0>        -0.8675
     18 H1          1.7896    0.0542    2.3403 H         1 <0>         0.0758
     19 H2          2.6765    0.3783    0.8315 H         1 <0>         0.0731
     20 H3          1.3540    1.4576    1.3359 H         1 <0>         0.0756
     21 H4         -3.0608   -1.9387    0.0915 H         1 <0>         0.0714
     22 H5         -3.0050   -0.3604   -0.7294 H         1 <0>         0.0886
     23 H6         -2.6436   -1.8486   -1.6365 H         1 <0>         0.0827
     24 H7         -0.2118   -3.1139   -2.4760 H         1 <0>         0.4110
     25 H8         -0.2442   -3.7096    1.0808 H         1 <0>         0.1220
     26 H9         -0.6238   -5.9060    2.1202 H         1 <0>         0.1253
     27 H10        -1.0761   -7.8749    0.7169 H         1 <0>         0.1215
     28 H11        -0.7791   -5.4456   -2.7910 H         1 <0>         0.1278
     29 H12        -1.6878  -10.4758   -1.4701 H         1 <0>         0.1097
     30 H13        -0.5677   -9.6598   -0.3532 H         1 <0>         0.0850
     31 H14        -2.3128   -9.3190   -0.2703 H         1 <0>         0.0848
     32 H15         3.0905   -1.6888    0.0242 H         1 <0>         0.3982
     33 H16         2.4134   -2.9982   -0.7818 H         1 <0>         0.3966
@<TRIPOS>BOND
     1    1    2 1
     2    1   18 1
     3    1   19 1
     4    1   20 1
     5    2    6 2
     6    2    3 1
     7    3    4 2
     8    3   17 1
     9    4    5 1
    10    4    8 1
    11    5    6 1
    12    5    7 1
    13    7   21 1
    14    7   22 1
    15    7   23 1
    16    8    9 1
    17    8   24 1
    18    9   14 ar
    19    9   10 ar
    20   10   11 ar
    21   10   25 1
    22   11   12 ar
    23   11   26 1
    24   12   13 ar
    25   12   27 1
    26   13   14 ar
    27   13   15 1
    28   14   28 1
    29   15   16 1
    30   16   29 1
    31   16   30 1
    32   16   31 1
    33   17   32 1
    34   17   33 1
@<TRIPOS>MOLECULE
ZINC37935482
   33    34     0     0     0
SMALL
USER_CHARGES

@<TRIPOS>ATOM
      1 C1         -0.0184    1.5028    0.0103 C.3       1 <0>        -0.1098
      2 C2          0.0021   -0.0041    0.0020 C.ar      1 <0>        -0.1352
      3 C3          0.0057   -0.6873   -1.2002 C.ar      1 <0>        -0.0732
      4 C4          0.0244   -2.0682   -1.2115 C.ar      1 <0>        -0.1789
      5 C5          0.0396   -2.7708   -0.0132 C.ar      1 <0>         0.2005
      6 C6          0.0359   -2.0813    1.1927 C.ar      1 <0>        -0.1896
      7 C7          0.0229   -0.7003    1.1966 C.ar      1 <0>        -0.0726
      8 N1          0.0581   -4.1674   -0.0209 N.pl3     1 <0>        -0.7346
      9 C8          0.0741   -4.9067    1.2438 C.3       1 <0>         0.3018
     10 H1         -0.5189   -4.3712    1.9852 H         1 <0>         0.1318
     11 C9          1.4608   -5.0316    1.7216 C.1       1 <0>         0.1842
     12 N2          2.5309   -5.1280    2.0904 N.1       1 <0>        -0.4028
     13 C10        -0.5093   -6.2797    1.0304 C.ar      1 <0>        -0.0945
     14 C11        -0.2071   -6.9866   -0.1187 C.ar      1 <0>        -0.0937
     15 C12        -0.7397   -8.2464   -0.3191 C.ar      1 <0>        -0.1249
     16 C13        -1.5781   -8.8036    0.6330 C.ar      1 <0>         0.0953
     17 C14        -1.8819   -8.0924    1.7899 C.ar      1 <0>         0.0866
     18 C15        -1.3408   -6.8320    1.9867 C.ar      1 <0>        -0.1062
     19 O1         -2.7042   -8.6350    2.7273 O.3       1 <0>        -0.4843
     20 O2         -2.1032  -10.0427    0.4372 O.3       1 <0>        -0.4863
     21 H2          1.0042    1.8801    0.0026 H         1 <0>         0.0656
     22 H3         -0.5455    1.8639   -0.8728 H         1 <0>         0.0636
     23 H4         -0.5286    1.8543    0.9071 H         1 <0>         0.0634
     24 H5         -0.0065   -0.1405   -2.1315 H         1 <0>         0.1234
     25 H6          0.0269   -2.6012   -2.1507 H         1 <0>         0.1229
     26 H7          0.0473   -2.6245    2.1261 H         1 <0>         0.1194
     27 H8          0.0244   -0.1635    2.1338 H         1 <0>         0.1226
     28 H9          0.0603   -4.6478   -0.8636 H         1 <0>         0.4077
     29 H10         0.4462   -6.5534   -0.8616 H         1 <0>         0.1321
     30 H11        -0.5026   -8.7962   -1.2180 H         1 <0>         0.1404
     31 H12        -1.5720   -6.2795    2.8854 H         1 <0>         0.1424
     32 H13        -2.2438   -9.1515    3.4028 H         1 <0>         0.3912
     33 H14        -1.5569  -10.7609    0.7848 H         1 <0>         0.3921
@<TRIPOS>BOND
     1    1    2 1
     2    1   21 1
     3    1   22 1
     4    1   23 1
     5    2    7 ar
     6    2    3 ar
     7    3    4 ar
     8    3   24 1
     9    4    5 ar
    10    4   25 1
    11    5    6 ar
    12    5    8 1
    13    6    7 ar
    14    6   26 1
    15    7   27 1
    16    8    9 1
    17    8   28 1
    18    9   10 1
    19    9   11 1
    20    9   13 1
    21   11   12 3
    22   13   18 ar
    23   13   14 ar
    24   14   15 ar
    25   14   29 1
    26   15   16 ar
    27   15   30 1
    28   16   17 ar
    29   16   20 1
    30   17   18 ar
    31   17   19 1
    32   18   31 1
    33   19   32 1
    34   20   33 1
@<TRIPOS>MOLECULE
ZINC47913074
   25    26     0     0     0
SMALL
USER_CHARGES

@<TRIPOS>ATOM
      1 C1         -0.1206    1.1366   -0.3824 C.3       1 <0>        -0.1253
      2 C2         -0.0674   -0.3557   -0.1790 C.ar      1 <0>        -0.0992
      3 C3         -0.0680   -1.1921   -1.2550 C.ar      1 <0>        -0.0422
      4 C4         -0.0193   -2.5737   -1.0896 C.ar      1 <0>        -0.0418
      5 C5          0.0308   -3.1251    0.1579 C.ar      1 <0>        -0.0529
      6 C6          0.0332   -2.2918    1.2842 C.ar      1 <0>        -0.1266
      7 C7         -0.0113   -0.8872    1.1188 C.ar      1 <0>         0.1766
      8 N1         -0.0047   -0.0798    2.1901 N.ar      1 <0>        -0.5209
      9 C8          0.0470   -0.5462    3.4103 C.ar      1 <0>         0.2424
     10 C9          0.0989   -1.9272    3.6704 C.ar      1 <0>        -0.2673
     11 C10         0.0840   -2.8293    2.5935 C.ar      1 <0>         0.3763
     12 N2          0.1331   -4.1878    2.8032 N.pl3     1 <0>        -0.7587
     13 C11         0.1563   -2.4208    5.0515 C.2       1 <0>         0.5403
     14 O1          0.2731   -1.6311    5.9792 O.co2     1 <0>        -0.6505
     15 O2          0.0875   -3.6222    5.2754 O.co2     1 <0>        -0.6659
     16 Cl1        -0.0229   -3.6062   -2.4851 Cl        1 <0>        -0.0379
     17 H1          0.8933    1.5287   -0.4626 H         1 <0>         0.0906
     18 H2         -0.6697    1.3592   -1.2973 H         1 <0>         0.0929
     19 H3         -0.6238    1.6011    0.4656 H         1 <0>         0.0702
     20 H4         -0.1072   -0.7769   -2.2512 H         1 <0>         0.1565
     21 H5          0.0680   -4.1979    0.2761 H         1 <0>         0.1524
     22 H6          0.0502    0.1462    4.2390 H         1 <0>         0.2099
     23 H7          0.2213   -4.7920    2.0494 H         1 <0>         0.4037
     24 H8          0.0795   -4.5417    3.7047 H         1 <0>         0.4424
     25 H9         -0.0391    0.8801    2.0551 H         1 <0>         0.4351
@<TRIPOS>BOND
     1    1    2 1
     2    1   17 1
     3    1   18 1
     4    1   19 1
     5    2    7 ar
     6    2    3 ar
     7    3    4 ar
     8    3   20 1
     9    4    5 ar
    10    4   16 1
    11    5    6 ar
    12    5   21 1
    13    6   11 ar
    14    6    7 ar
    15    7    8 ar
    16    8    9 ar
    17    8   25 1
    18    9   10 ar
    19    9   22 1
    20   10   11 ar
    21   10   13 1
    22   11   12 1
    23   12   23 1
    24   12   24 1
    25   13   14 2
    26   13   15 1
@<TRIPOS>MOLECULE
ZINC55170806
   36    37     0     0     0
SMALL
USER_CHARGES

@<TRIPOS>ATOM
      1 C1         -0.0184    1.5028    0.0103 C.3       1 <0>        -0.0912
      2 C2          0.0021   -0.0041    0.0020 C.2       1 <0>         0.2092
      3 C3          0.0061   -0.7290   -1.1812 C.2       1 <0>        -0.3319
      4 S1          0.0326   -2.3973   -0.5447 S.3       1 <0>         0.1107
      5 C4          0.0358   -2.0215    1.0957 C.2       1 <0>         0.3397
      6 N1          0.0225   -0.7001    1.1108 N.2       1 <0>        -0.5954
      7 N2          0.0533   -2.8865    2.1688 N.pl3     1 <0>        -0.7893
      8 C5         -0.0082   -0.2577   -2.5653 C.2       1 <0>         0.6195
      9 O1         -0.0267    0.9366   -2.8016 O.2       1 <0>        -0.5294
     10 N3         -0.0009   -1.1452   -3.5796 N.am      1 <0>        -0.7182
     11 C6         -0.0152   -0.6729   -4.9663 C.3       1 <0>         0.1534
     12 H1         -0.6182    0.2325   -5.0356 H         1 <0>         0.0917
     13 C7          1.4151   -0.3688   -5.4163 C.3       1 <0>        -0.1321
     14 C8          2.2615   -1.6396   -5.3191 C.3       1 <0>        -0.1191
     15 C9          1.6625   -2.7215   -6.2201 C.3       1 <0>        -0.1215
     16 C10         0.2322   -3.0256   -5.7701 C.3       1 <0>        -0.1163
     17 C11        -0.6142   -1.7547   -5.8673 C.3       1 <0>        -0.1000
     18 H2         -0.6249   -1.4034   -6.8991 H         1 <0>         0.0873
     19 C12        -2.0445   -2.0589   -5.4173 C.3       1 <0>        -0.1489
     20 H3          1.0042    1.8801    0.0026 H         1 <0>         0.0829
     21 H4         -0.5455    1.8639   -0.8728 H         1 <0>         0.0978
     22 H5         -0.5286    1.8543    0.9071 H         1 <0>         0.0747
     23 H6          0.0659   -3.8448    2.0191 H         1 <0>         0.4232
     24 H7          0.0531   -2.5369    3.0736 H         1 <0>         0.4190
     25 H8          0.0139   -2.0966   -3.3914 H         1 <0>         0.3957
     26 H9          1.4044   -0.0174   -6.4481 H         1 <0>         0.0729
     27 H10         1.8418    0.4019   -4.7744 H         1 <0>         0.0699
     28 H11         3.2805   -1.4230   -5.6397 H         1 <0>         0.0625
     29 H12         2.2722   -1.9910   -4.2873 H         1 <0>         0.0601
     30 H13         1.6518   -2.3701   -7.2518 H         1 <0>         0.0644
     31 H14         2.2655   -3.6269   -6.1508 H         1 <0>         0.0628
     32 H15        -0.1945   -3.7963   -6.4120 H         1 <0>         0.0678
     33 H16         0.2428   -3.3770   -4.7383 H         1 <0>         0.0578
     34 H17        -2.6475   -1.1535   -5.4866 H         1 <0>         0.0577
     35 H18        -2.4713   -2.8296   -6.0592 H         1 <0>         0.0582
     36 H19        -2.0339   -2.4103   -4.3855 H         1 <0>         0.0542
@<TRIPOS>BOND
     1    1    2 1
     2    1   20 1
     3    1   21 1
     4    1   22 1
     5    2    6 1
     6    2    3 2
     7    3    4 1
     8    3    8 1
     9    4    5 1
    10    5    6 2
    11    5    7 1
    12    7   23 1
    13    7   24 1
    14    8    9 2
    15    8   10 am
    16   10   11 1
    17   10   25 1
    18   11   12 1
    19   11   17 1
    20   11   13 1
    21   13   14 1
    22   13   26 1
    23   13   27 1
    24   14   15 1
    25   14   28 1
    26   14   29 1
    27   15   16 1
    28   15   30 1
    29   15   31 1
    30   16   17 1
    31   16   32 1
    32   16   33 1
    33   17   18 1
    34   17   19 1
    35   19   34 1
    36   19   35 1
    37   19   36 1
@<TRIPOS>MOLECULE
ZINC62794340
   36    37     0     0     0
SMALL
USER_CHARGES

@<TRIPOS>ATOM
      1 C1         -0.0187    1.5258    0.0104 C.3       1 <0>        -0.1631
      2 C2          0.0021   -0.0041    0.0020 C.3       1 <0>         0.1739
      3 H1         -1.0198   -0.3834    0.0097 H         1 <0>         0.0610
      4 C3          0.7248   -0.5010   -1.2540 C.3       1 <0>        -0.1338
      5 C4          0.8649   -2.0235   -1.1883 C.3       1 <0>        -0.1151
      6 C5          1.7011   -2.4084    0.0343 C.3       1 <0>        -0.1384
      7 C6          0.9894   -1.9331    1.3048 C.3       1 <0>         0.1471
      8 N1          0.7181   -0.4935    1.1880 N.pl3     1 <0>        -0.6738
      9 C7          1.1354    0.3915    2.1813 C.ar      1 <0>         0.2130
     10 C8          0.2955    0.6798    3.2517 C.ar      1 <0>        -0.1189
     11 C9          0.7049    1.5541    4.2344 C.ar      1 <0>        -0.0583
     12 C10         1.9644    2.1510    4.1559 C.ar      1 <0>        -0.0463
     13 C11         2.8062    1.8602    3.0812 C.ar      1 <0>        -0.0822
     14 C12         2.3939    0.9805    2.1030 C.ar      1 <0>        -0.0488
     15 Cl1         3.4426    0.6123    0.7694 Cl        1 <0>        -0.0528
     16 C13         2.4059    3.0904    5.2095 C.2       1 <0>         0.4132
     17 N2          1.6199    3.3611    6.2110 N.2       1 <0>        -0.4141
     18 O1          2.0425    4.2605    7.2197 O.3       1 <0>        -0.4208
     19 N3          3.6555    3.6818    5.1306 N.pl3     1 <0>        -0.8692
     20 H2          1.0039    1.9031    0.0027 H         1 <0>         0.0611
     21 H3         -0.5459    1.8868   -0.8726 H         1 <0>         0.0674
     22 H4         -0.5289    1.8773    0.9072 H         1 <0>         0.0594
     23 H5          0.1490   -0.2263   -2.1377 H         1 <0>         0.0665
     24 H6          1.7142   -0.0466   -1.3081 H         1 <0>         0.0682
     25 H7         -0.1236   -2.4760   -1.1093 H         1 <0>         0.0607
     26 H8          1.3570   -2.3822   -2.0924 H         1 <0>         0.0599
     27 H9          1.8201   -3.4913    0.0674 H         1 <0>         0.0671
     28 H10         2.6812   -1.9361   -0.0320 H         1 <0>         0.0673
     29 H11         0.0489   -2.4718    1.4201 H         1 <0>         0.0538
     30 H12         1.6261   -2.1160    2.1705 H         1 <0>         0.0678
     31 H13        -0.6789    0.2179    3.3123 H         1 <0>         0.1396
     32 H14         0.0517    1.7779    5.0648 H         1 <0>         0.1447
     33 H15         3.7811    2.3206    3.0181 H         1 <0>         0.1347
     34 H16         1.3917    4.3985    7.9214 H         1 <0>         0.4023
     35 H17         4.2413    3.4800    4.3842 H         1 <0>         0.3965
     36 H18         3.9450    4.2979    5.8216 H         1 <0>         0.4106
@<TRIPOS>BOND
     1    1    2 1
     2    1   20 1
     3    1   21 1
     4    1   22 1
     5    2    3 1
     6    2    8 1
     7    2    4 1
     8    4    5 1
     9    4   23 1
    10    4   24 1
    11    5    6 1
    12    5   25 1
    13    5   26 1
    14    6    7 1
    15    6   27 1
    16    6   28 1
    17    7    8 1
    18    7   29 1
    19    7   30 1
    20    8    9 1
    21    9   14 ar
    22    9   10 ar
    23   10   11 ar
    24   10   31 1
    25   11   12 ar
    26   11   32 1
    27   12   13 ar
    28   12   16 1
    29   13   14 ar
    30   13   33 1
    31   14   15 1
    32   16   17 2
    33   16   19 1
    34   17   18 1
    35   18   34 1
    36   19   35 1
    37   19   36 1
@<TRIPOS>MOLECULE
ZINC35280783
   36    37     0     0     0
SMALL
USER_CHARGES

@<TRIPOS>ATOM
      1 C1         -0.0187    1.5258    0.0104 C.3       1 <0>        -0.1609
      2 C2          0.0021   -0.0041    0.0020 C.3       1 <0>        -0.0744
      3 C3          0.7421   -0.5109    1.2415 C.3       1 <0>        -0.1619
      4 C4         -1.4333   -0.5336    0.0129 C.3       1 <0>        -0.0897
      5 C5         -1.4434   -2.0725    0.1157 C.3       1 <0>        -0.1554
      6 C6         -2.1699   -2.3362    1.4166 C.2       1 <0>         0.5233
      7 O1         -2.3990   -3.4314    1.8834 O.2       1 <0>        -0.4652
      8 N1         -2.5193   -1.1686    1.9705 N.am      1 <0>        -0.5233
      9 C7         -2.1553   -0.0897    1.2664 C.2       1 <0>         0.5331
     10 O2         -2.3697    1.0607    1.5831 O.2       1 <0>        -0.4559
     11 C8         -3.2110   -1.0826    3.1893 C.ar      1 <0>         0.0281
     12 C9         -2.5093   -1.0014    4.3823 C.ar      1 <0>        -0.0374
     13 C10        -3.1915   -0.9169    5.5814 C.ar      1 <0>        -0.1595
     14 C11        -4.5755   -0.9129    5.5959 C.ar      1 <0>         0.0287
     15 C12        -5.2831   -0.9940    4.4105 C.ar      1 <0>        -0.1834
     16 C13        -4.6052   -1.0729    3.2025 C.ar      1 <0>         0.2520
     17 N2         -5.3182   -1.1482    2.0020 N.pl3     1 <0>        -0.8641
     18 Cl1        -5.4252   -0.8064    7.1060 Cl        1 <0>        -0.0580
     19 C14        -2.1864   -0.0692   -1.2354 C.3       1 <0>        -0.1374
     20 H1          1.0039    1.9031    0.0027 H         1 <0>         0.0603
     21 H2         -0.5459    1.8868   -0.8726 H         1 <0>         0.0617
     22 H3         -0.5289    1.8773    0.9072 H         1 <0>         0.0721
     23 H4          0.5123   -0.3556   -0.8948 H         1 <0>         0.0930
     24 H5          0.7568   -1.6008    1.2356 H         1 <0>         0.0601
     25 H6          1.7647   -0.1336    1.2338 H         1 <0>         0.0700
     26 H7          0.2319   -0.1594    2.1383 H         1 <0>         0.0520
     27 H8         -1.9863   -2.5094   -0.7223 H         1 <0>         0.1250
     28 H9         -0.4258   -2.4607    0.1592 H         1 <0>         0.1285
     29 H10        -1.4294   -1.0046    4.3747 H         1 <0>         0.1346
     30 H11        -2.6431   -0.8541    6.5097 H         1 <0>         0.1407
     31 H12        -6.3630   -0.9914    4.4247 H         1 <0>         0.1412
     32 H13        -4.8429   -1.2073    1.1585 H         1 <0>         0.3964
     33 H14        -6.2881   -1.1414    2.0128 H         1 <0>         0.4066
     34 H15        -1.6788   -0.4412   -2.1253 H         1 <0>         0.0805
     35 H16        -3.2052   -0.4556   -1.2098 H         1 <0>         0.0609
     36 H17        -2.2115    1.0203   -1.2601 H         1 <0>         0.0779
@<TRIPOS>BOND
     1    1    2 1
     2    1   20 1
     3    1   21 1
     4    1   22 1
     5    2    3 1
     6    2    4 1
     7    2   23 1
     8    3   24 1
     9    3   25 1
    10    3   26 1
    11    4    9 1
    12    4    5 1
    13    4   19 1
    14    5    6 1
    15    5   27 1
    16    5   28 1
    17    6    7 2
    18    6    8 am
    19    8    9 am
    20    8   11 1
    21    9   10 2
    22   11   16 ar
    23   11   12 ar
    24   12   13 ar
    25   12   29 1
    26   13   14 ar
    27   13   30 1
    28   14   15 ar
    29   14   18 1
    30   15   16 ar
    31   15   31 1
    32   16   17 1
    33   17   32 1
    34   17   33 1
    35   19   34 1
    36   19   35 1
    37   19   36 1
@<TRIPOS>MOLECULE
ZINC40455937
   23    24     0     0     0
SMALL
USER_CHARGES

@<TRIPOS>ATOM
      1 C1          0.7377    0.0799   -1.1868 C.ar      1 <0>        -0.1104
      2 C2          1.9226    0.7896   -1.2084 C.ar      1 <0>        -0.0750
      3 C3          2.3750    1.4176   -0.0617 C.ar      1 <0>        -0.0904
      4 C4          1.6420    1.3365    1.1088 C.ar      1 <0>        -0.0754
      5 C5          0.4567    0.6274    1.1349 C.ar      1 <0>        -0.1081
      6 C6          0.0011   -0.0028   -0.0140 C.ar      1 <0>         0.1187
      7 O1         -1.1650   -0.7006    0.0094 O.3       1 <0>        -0.2320
      8 C7         -1.1016   -2.0501   -0.1028 C.ar      1 <0>         0.4367
      9 N1          0.0821   -2.6404   -0.1081 N.ar      1 <0>        -0.5133
     10 C8          0.1837   -3.9550   -0.2159 C.ar      1 <0>         0.1125
     11 C9         -0.9762   -4.7167   -0.3244 C.ar      1 <0>         0.0868
     12 C10        -2.2029   -4.0590   -0.3150 C.ar      1 <0>         0.1137
     13 N2         -2.2252   -2.7414   -0.1985 N.ar      1 <0>        -0.4764
     14 N3         -0.9106   -6.1104   -0.4407 N.pl3     1 <0>        -0.8604
     15 Br1         3.9977    2.3879   -0.0942 Br        1 <0>        -0.0426
     16 H1          0.3827   -0.4065   -2.0833 H         1 <0>         0.1339
     17 H2          2.4966    0.8539   -2.1211 H         1 <0>         0.1400
     18 H3          1.9968    1.8275    2.0029 H         1 <0>         0.1425
     19 H4         -0.1148    0.5637    2.0491 H         1 <0>         0.1412
     20 H5          1.1534   -4.4306   -0.2200 H         1 <0>         0.1712
     21 H6         -3.1239   -4.6170   -0.3972 H         1 <0>         0.1768
     22 H7         -0.0494   -6.5566   -0.4464 H         1 <0>         0.4048
     23 H8         -1.7265   -6.6297   -0.5157 H         1 <0>         0.4053
@<TRIPOS>BOND
     1    1    6 ar
     2    1    2 ar
     3    1   16 1
     4    2    3 ar
     5    2   17 1
     6    3    4 ar
     7    3   15 1
     8    4    5 ar
     9    4   18 1
    10    5    6 ar
    11    5   19 1
    12    6    7 1
    13    7    8 1
    14    8   13 ar
    15    8    9 ar
    16    9   10 ar
    17   10   11 ar
    18   10   20 1
    19   11   12 ar
    20   11   14 1
    21   12   13 ar
    22   12   21 1
    23   14   22 1
    24   14   23 1
@<TRIPOS>MOLECULE
ZINC49449731
   32    33     0     0     0
SMALL
USER_CHARGES

@<TRIPOS>ATOM
      1 C1         -0.0170    1.3999    0.0097 C.2       1 <0>        -0.2693
      2 C2          1.2644    1.8323   -0.0002 C.2       1 <0>         0.0689
      3 N1          2.0673    0.7475   -0.0137 N.pl3     1 <0>        -0.4690
      4 H1          3.0372    0.7565   -0.0224 H         1 <0>         0.4436
      5 N2          1.2550   -0.3937   -0.0120 N.2       1 <0>        -0.3218
      6 C3          0.0021   -0.0041    0.0020 C.2       1 <0>         0.2978
      7 N3         -1.1209   -0.8427    0.0089 N.am      1 <0>        -0.6342
      8 C4         -2.3591   -0.3108    0.0244 C.2       1 <0>         0.5287
      9 O1         -2.5017    0.8937    0.0323 O.2       1 <0>        -0.5067
     10 C5         -3.5665   -1.2125    0.0318 C.3       1 <0>        -0.0986
     11 H2         -3.5593   -1.8368   -0.8616 H         1 <0>         0.1142
     12 C6         -3.5309   -2.1023    1.2760 C.3       1 <0>        -0.1173
     13 C7         -3.5411   -1.2259    2.5301 C.3       1 <0>        -0.1201
     14 C8         -4.8128   -0.3754    2.5476 C.3       1 <0>        -0.1202
     15 C9         -4.8484    0.5144    1.3034 C.3       1 <0>        -0.1446
     16 H3         -3.9751    1.1666    1.2981 H         1 <0>         0.1394
     17 C10        -4.8382   -0.3620    0.0493 C.3       1 <0>        -0.0994
     18 C11        -6.1201    1.3650    1.3209 C.3       1 <0>         0.4544
     19 F1         -6.1294    2.1663    2.4677 F         1 <0>        -0.1843
     20 F2         -6.1526    2.1785    0.1833 F         1 <0>        -0.1816
     21 F3         -7.2410    0.5278    1.3278 F         1 <0>        -0.1855
     22 H4         -0.8984    2.0237    0.0255 H         1 <0>         0.1728
     23 H5          1.5878    2.8627    0.0020 H         1 <0>         0.1817
     24 H6         -1.0069   -1.8060    0.0026 H         1 <0>         0.4163
     25 H7         -4.4043   -2.7545    1.2814 H         1 <0>         0.0862
     26 H8         -2.6250   -2.7082    1.2636 H         1 <0>         0.0742
     27 H9         -3.5158   -1.8598    3.4165 H         1 <0>         0.0784
     28 H10        -2.6678   -0.5737    2.5248 H         1 <0>         0.0653
     29 H11        -5.6861   -1.0276    2.5530 H         1 <0>         0.0779
     30 H12        -4.8201    0.2490    3.4411 H         1 <0>         0.0778
     31 H13        -4.8636    0.2719   -0.8371 H         1 <0>         0.0866
     32 H14        -5.7115   -1.0142    0.0547 H         1 <0>         0.0883
@<TRIPOS>BOND
     1    1    6 1
     2    1    2 2
     3    1   22 1
     4    2    3 1
     5    2   23 1
     6    3    4 1
     7    3    5 1
     8    5    6 2
     9    6    7 1
    10    7    8 am
    11    7   24 1
    12    8    9 2
    13    8   10 1
    14   10   11 1
    15   10   17 1
    16   10   12 1
    17   12   13 1
    18   12   25 1
    19   12   26 1
    20   13   14 1
    21   13   27 1
    22   13   28 1
    23   14   15 1
    24   14   29 1
    25   14   30 1
    26   15   16 1
    27   15   17 1
    28   15   18 1
    29   17   31 1
    30   17   32 1
    31   18   19 1
    32   18   20 1
    33   18   21 1
@<TRIPOS>MOLECULE
ZINC53095579
   42    43     0     0     0
SMALL
USER_CHARGES

@<TRIPOS>ATOM
      1 C1         -0.0522   -3.4974    1.4063 C.3       1 <0>        -0.0815
      2 C2          1.1708   -2.8250    0.8379 C.2       1 <0>        -0.1440
      3 C3          1.6440   -2.9325   -0.4130 C.2       1 <0>        -0.0135
      4 O1          2.7509   -2.1825   -0.5304 O.3       1 <0>        -0.1711
      5 C4          3.0352   -1.5681    0.6220 C.2       1 <0>         0.0403
      6 C5          2.0856   -1.9122    1.5390 C.2       1 <0>        -0.2284
      7 C6          1.9970   -1.4649    2.9404 C.2       1 <0>         0.6036
      8 O2          2.5496   -2.1005    3.8177 O.2       1 <0>        -0.5327
      9 N1          1.3036   -0.3514    3.2498 N.am      1 <0>        -0.6997
     10 C7          1.1180    0.0301    4.6521 C.3       1 <0>         0.1868
     11 C8          0.2374    1.2789    4.7287 C.3       1 <0>        -0.1194
     12 C9          0.9119    2.4257    3.9732 C.3       1 <0>        -0.1211
     13 C10         2.2732    2.7220    4.6055 C.3       1 <0>        -0.1217
     14 C11         3.1538    1.4732    4.5290 C.3       1 <0>        -0.1140
     15 C12         2.4793    0.3264    5.2844 C.3       1 <0>        -0.1327
     16 C13         0.4435   -1.1168    5.4076 C.3       1 <0>         0.0610
     17 O3         -0.7681   -1.4782    4.7418 O.3       1 <0>        -0.5665
     18 C14         4.2028   -0.6469    0.8652 C.3       1 <0>        -0.0807
     19 C15         1.0307   -3.7628   -1.5109 C.3       1 <0>        -0.0733
     20 H1         -0.9224   -2.8593    1.2522 H         1 <0>         0.0710
     21 H2         -0.2083   -4.4522    0.9043 H         1 <0>         0.0679
     22 H3          0.0894   -3.6670    2.4737 H         1 <0>         0.0674
     23 H4          0.9274    0.1975    2.5440 H         1 <0>         0.4006
     24 H5         -0.7324    1.0677    4.2782 H         1 <0>         0.0775
     25 H6          0.0993    1.5626    5.7720 H         1 <0>         0.0778
     26 H7          1.0499    2.1419    2.9299 H         1 <0>         0.0600
     27 H8          0.2845    3.3153    4.0277 H         1 <0>         0.0673
     28 H9          2.7537    3.5390    4.0673 H         1 <0>         0.0629
     29 H10         2.1351    3.0058    5.6489 H         1 <0>         0.0636
     30 H11         3.2919    1.1894    3.4856 H         1 <0>         0.0603
     31 H12         4.1236    1.6844    4.9795 H         1 <0>         0.0645
     32 H13         2.3413    0.6102    6.3278 H         1 <0>         0.0715
     33 H14         3.1067   -0.5633    5.2299 H         1 <0>         0.0872
     34 H15         1.1129   -1.9765    5.4359 H         1 <0>         0.0682
     35 H16         0.2178   -0.7983    6.4253 H         1 <0>         0.0510
     36 H17        -1.2499   -2.2010    5.1667 H         1 <0>         0.3781
     37 H18         4.7888   -0.5539   -0.0491 H         1 <0>         0.0836
     38 H19         3.8350    0.3351    1.1626 H         1 <0>         0.0877
     39 H20         4.8291   -1.0558    1.6581 H         1 <0>         0.0911
     40 H21         0.3085   -3.1603   -2.0619 H         1 <0>         0.0825
     41 H22         1.8130   -4.1029   -2.1895 H         1 <0>         0.0775
     42 H23         0.5269   -4.6258   -1.0755 H         1 <0>         0.0896
@<TRIPOS>BOND
     1    1    2 1
     2    1   20 1
     3    1   21 1
     4    1   22 1
     5    2    6 1
     6    2    3 2
     7    3    4 1
     8    3   19 1
     9    4    5 1
    10    5    6 2
    11    5   18 1
    12    6    7 1
    13    7    8 2
    14    7    9 am
    15    9   10 1
    16    9   23 1
    17   10   15 1
    18   10   11 1
    19   10   16 1
    20   11   12 1
    21   11   24 1
    22   11   25 1
    23   12   13 1
    24   12   26 1
    25   12   27 1
    26   13   14 1
    27   13   28 1
    28   13   29 1
    29   14   15 1
    30   14   30 1
    31   14   31 1
    32   15   32 1
    33   15   33 1
    34   16   17 1
    35   16   34 1
    36   16   35 1
    37   17   36 1
    38   18   37 1
    39   18   38 1
    40   18   39 1
    41   19   40 1
    42   19   41 1
    43   19   42 1
@<TRIPOS>MOLECULE
ZINC62428775
   36    38     0     0     0
SMALL
USER_CHARGES

@<TRIPOS>ATOM
      1 C1          1.0838    1.4407    0.0011 C.3       1 <0>        -0.1199
      2 C2          0.9618   -0.0608   -0.0427 C.ar      1 <0>        -0.0622
      3 C3          1.7127   -0.7868   -0.9502 C.ar      1 <0>        -0.1242
      4 C4          1.6052   -2.1614   -0.9955 C.ar      1 <0>        -0.0772
      5 C5          0.7375   -2.8195   -0.1234 C.ar      1 <0>        -0.0521
      6 C6         -0.0163   -2.0819    0.7895 C.ar      1 <0>        -0.0451
      7 C7          0.1040   -0.7077    0.8285 C.ar      1 <0>        -0.1215
      8 C8         -0.9559   -2.7848    1.7351 C.3       1 <0>        -0.1248
      9 C9          0.6171   -4.2936   -0.1670 C.2       1 <0>         0.1065
     10 C10         0.6619   -5.1481    0.8944 C.2       1 <0>        -0.0589
     11 N1          0.5171   -6.3941    0.4496 N.2       1 <0>        -0.2311
     12 N2          0.3819   -6.3967   -0.8302 N.2       1 <0>        -0.0600
     13 N3          0.4325   -5.0692   -1.2816 N.pl3     1 <0>        -0.3149
     14 C11         0.3202   -4.6258   -2.6064 C.ar      1 <0>         0.1778
     15 C12        -0.4379   -3.4995   -2.9006 C.ar      1 <0>        -0.1652
     16 C13        -0.5489   -3.0612   -4.2060 C.ar      1 <0>        -0.0516
     17 C14         0.0929   -3.7413   -5.2232 C.ar      1 <0>        -0.1873
     18 C15         0.8523   -4.8687   -4.9356 C.ar      1 <0>         0.2329
     19 C16         0.9706   -5.3077   -3.6240 C.ar      1 <0>        -0.1817
     20 N4          1.5006   -5.5562   -5.9642 N.pl3     1 <0>        -0.8721
     21 H1          1.8728    1.7209    0.6989 H         1 <0>         0.0749
     22 H2          1.3284    1.8144   -0.9932 H         1 <0>         0.0693
     23 H3          0.1383    1.8726    0.3291 H         1 <0>         0.0695
     24 H4          2.3840   -0.2762   -1.6248 H         1 <0>         0.1277
     25 H5          2.1913   -2.7269   -1.7049 H         1 <0>         0.1212
     26 H6         -0.4758   -0.1359    1.5378 H         1 <0>         0.1300
     27 H7         -0.4349   -3.0077    2.6662 H         1 <0>         0.0797
     28 H8         -1.8112   -2.1416    1.9424 H         1 <0>         0.0725
     29 H9         -1.3013   -3.7134    1.2808 H         1 <0>         0.0693
     30 H10         0.7937   -4.8610    1.9271 H         1 <0>         0.1902
     31 H11        -0.9413   -2.9661   -2.1079 H         1 <0>         0.1272
     32 H12        -1.1389   -2.1853   -4.4320 H         1 <0>         0.1348
     33 H13         0.0039   -3.3965   -6.2428 H         1 <0>         0.1297
     34 H14         1.5638   -6.1812   -3.3971 H         1 <0>         0.1322
     35 H15         1.4208   -5.2465   -6.8800 H         1 <0>         0.4029
     36 H16         2.0306   -6.3432   -5.7628 H         1 <0>         0.4017
@<TRIPOS>BOND
     1    1    2 1
     2    1   21 1
     3    1   22 1
     4    1   23 1
     5    2    7 ar
     6    2    3 ar
     7    3    4 ar
     8    3   24 1
     9    4    5 ar
    10    4   25 1
    11    5    6 ar
    12    5    9 1
    13    6    7 ar
    14    6    8 1
    15    7   26 1
    16    8   27 1
    17    8   28 1
    18    8   29 1
    19    9   13 1
    20    9   10 2
    21   10   11 1
    22   10   30 1
    23   11   12 2
    24   12   13 1
    25   13   14 1
    26   14   19 ar
    27   14   15 ar
    28   15   16 ar
    29   15   31 1
    30   16   17 ar
    31   16   32 1
    32   17   18 ar
    33   17   33 1
    34   18   19 ar
    35   18   20 1
    36   19   34 1
    37   20   35 1
    38   20   36 1
@<TRIPOS>MOLECULE
ZINC21989216
   33    34     0     0     0
SMALL
USER_CHARGES
2-chloro-N'-isobutyl-quinoline-3,4-diamine
@<TRIPOS>ATOM
      1 C1          4.9947   -3.8069    2.5688 C.3       1 <0>        -0.1490
      2 C2          4.3715   -3.7110    1.1748 C.3       1 <0>        -0.1053
      3 C3          4.1995   -5.1164    0.5951 C.3       1 <0>        -0.1476
      4 C4          3.0054   -3.0290    1.2727 C.3       1 <0>         0.1330
      5 N1          2.4602   -2.8289   -0.0766 N.pl3     1 <0>        -0.7839
      6 C5          1.2725   -2.1050   -0.0323 C.ar      1 <0>         0.1377
      7 C6          1.2663   -0.7029   -0.2115 C.ar      1 <0>        -0.0589
      8 C7          2.4539    0.0075   -0.4409 C.ar      1 <0>        -0.1013
      9 C8          2.4088    1.3584   -0.6096 C.ar      1 <0>        -0.1051
     10 C9          1.1975    2.0443   -0.5563 C.ar      1 <0>        -0.1198
     11 C10         0.0269    1.3856   -0.3359 C.ar      1 <0>        -0.0754
     12 C11         0.0333   -0.0088   -0.1576 C.ar      1 <0>         0.0971
     13 N2         -1.1039   -0.6789    0.0599 N.ar      1 <0>        -0.4370
     14 C12        -1.1165   -1.9817    0.2290 C.ar      1 <0>         0.1540
     15 C13         0.0555   -2.7377    0.1901 C.ar      1 <0>         0.1788
     16 N3          0.0055   -4.1276    0.3738 N.pl3     1 <0>        -0.8782
     17 Cl1        -2.6309   -2.7834    0.5075 Cl        1 <0>        -0.0321
     18 H1          5.1183   -2.7964    2.9855 H         1 <0>         0.0563
     19 H2          5.9769   -4.2972    2.4984 H         1 <0>         0.0585
     20 H3          4.3369   -4.3961    3.2247 H         1 <0>         0.0560
     21 H4          5.0293   -3.1219    0.5189 H         1 <0>         0.0747
     22 H5          3.7514   -5.0473   -0.4071 H         1 <0>         0.0556
     23 H6          3.5417   -5.7056    1.2510 H         1 <0>         0.0551
     24 H7          5.1817   -5.6067    0.5247 H         1 <0>         0.0556
     25 H8          2.3201   -3.6627    1.8548 H         1 <0>         0.0445
     26 H9          3.1168   -2.0549    1.7714 H         1 <0>         0.0477
     27 H10         2.9912   -3.2350   -0.9502 H         1 <0>         0.4282
     28 H11         3.3988   -0.5138   -0.4832 H         1 <0>         0.1292
     29 H12         3.3236    1.9045   -0.7865 H         1 <0>         0.1252
     30 H13         1.1869    3.1155   -0.6930 H         1 <0>         0.1288
     31 H14        -0.9042    1.9318   -0.3026 H         1 <0>         0.1344
     32 H15        -0.9599   -4.6248    0.5496 H         1 <0>         0.4191
     33 H16         0.9316   -4.7203    0.3420 H         1 <0>         0.4240
@<TRIPOS>BOND
     1    1    2 1
     2    1   18 1
     3    1   19 1
     4    1   20 1
     5    2    3 1
     6    2    4 1
     7    2   21 1
     8    3   22 1
     9    3   23 1
    10    3   24 1
    11    4    5 1
    12    4   25 1
    13    4   26 1
    14    5    6 1
    15    5   27 1
    16    6   15 ar
    17    6    7 ar
    18    7   12 ar
    19    7    8 ar
    20    8    9 ar
    21    8   28 1
    22    9   10 ar
    23    9   29 1
    24   10   11 ar
    25   10   30 1
    26   11   12 ar
    27   11   31 1
    28   12   13 ar
    29   13   14 ar
    30   14   15 ar
    31   14   17 1
    32   15   16 1
    33   16   32 1
    34   16   33 1
@<TRIPOS>MOLECULE
ZINC40311644
   41    43     0     0     0
SMALL
USER_CHARGES

@<TRIPOS>ATOM
      1 C1         -0.0187    1.5258    0.0104 C.3       1 <0>        -0.1230
      2 C2          0.0021   -0.0041    0.0020 C.3       1 <0>        -0.0738
      3 C3          0.7443   -0.6691   -1.1972 C.3       1 <0>        -0.1123
      4 C4          1.0617   -2.1027   -0.7139 C.3       1 <0>        -0.1223
      5 C5          0.4813   -2.1688    0.7318 C.3       1 <0>        -0.0945
      6 H1          0.8820   -2.9559    1.3706 H         1 <0>         0.0978
      7 C6          0.7270   -0.6945    1.2108 C.3       1 <0>        -0.0642
      8 C7          0.0314   -0.4000    2.5413 C.3       1 <0>        -0.1566
      9 C8          2.2164   -0.3480    1.2605 C.3       1 <0>        -0.1381
     10 C9         -1.0651   -2.1745    0.5318 C.3       1 <0>        -0.1280
     11 C10        -1.3895   -0.7050    0.0620 C.3       1 <0>         0.1518
     12 H2         -1.8449   -0.7309   -0.9279 H         1 <0>         0.0913
     13 N1         -2.2675   -0.0167    1.0115 N.am      1 <0>        -0.7218
     14 C11        -3.6057   -0.1000    0.8742 C.2       1 <0>         0.6169
     15 O1         -4.0850   -0.7475   -0.0392 O.2       1 <0>        -0.5558
     16 C12        -4.4538    0.5649    1.7914 C.2       1 <0>        -0.3750
     17 C13        -5.8476    0.6024    1.8321 C.2       1 <0>         0.2762
     18 C14        -6.3905    1.3466    2.8620 C.2       1 <0>        -0.2353
     19 C15        -5.5614    1.9678    3.7322 C.2       1 <0>        -0.1732
     20 S1         -4.0196    1.5665    3.2006 S.3       1 <0>         0.1816
     21 N2         -6.6373   -0.0638    0.8989 N.pl3     1 <0>        -0.8361
     22 H3          1.0039    1.9031    0.0027 H         1 <0>         0.0635
     23 H4         -0.5459    1.8868   -0.8726 H         1 <0>         0.0602
     24 H5         -0.5289    1.8773    0.9072 H         1 <0>         0.0569
     25 H6          0.0986   -0.6982   -2.0748 H         1 <0>         0.0659
     26 H7          1.6654   -0.1305   -1.4198 H         1 <0>         0.0700
     27 H8          0.5719   -2.8366   -1.3539 H         1 <0>         0.0657
     28 H9          2.1388   -2.2689   -0.6989 H         1 <0>         0.0659
     29 H10        -0.9940   -0.7680    2.5045 H         1 <0>         0.0694
     30 H11         0.5672   -0.8977    3.3495 H         1 <0>         0.0599
     31 H12         0.0252    0.6756    2.7178 H         1 <0>         0.0567
     32 H13         2.3353    0.7305    1.3637 H         1 <0>         0.0558
     33 H14         2.6774   -0.8476    2.1126 H         1 <0>         0.0547
     34 H15         2.6976   -0.6802    0.3406 H         1 <0>         0.0617
     35 H16        -1.3483   -2.9115   -0.2197 H         1 <0>         0.0731
     36 H17        -1.5696   -2.3801    1.4759 H         1 <0>         0.0674
     37 H18        -1.8857    0.4990    1.7390 H         1 <0>         0.3997
     38 H19        -7.4616    1.4315    2.9706 H         1 <0>         0.1388
     39 H20        -5.8304    2.5802    4.5802 H         1 <0>         0.1913
     40 H21        -6.2207   -0.5767    0.1888 H         1 <0>         0.4183
     41 H22        -7.6043   -0.0150    0.9588 H         1 <0>         0.3992
@<TRIPOS>BOND
     1    1    2 1
     2    1   22 1
     3    1   23 1
     4    1   24 1
     5    2    7 1
     6    2   11 1
     7    2    3 1
     8    3    4 1
     9    3   25 1
    10    3   26 1
    11    4    5 1
    12    4   27 1
    13    4   28 1
    14    5    6 1
    15    5    7 1
    16    5   10 1
    17    7    8 1
    18    7    9 1
    19    8   29 1
    20    8   30 1
    21    8   31 1
    22    9   32 1
    23    9   33 1
    24    9   34 1
    25   10   11 1
    26   10   35 1
    27   10   36 1
    28   11   12 1
    29   11   13 1
    30   13   14 am
    31   13   37 1
    32   14   15 2
    33   14   16 1
    34   16   20 1
    35   16   17 2
    36   17   18 1
    37   17   21 1
    38   18   19 2
    39   18   38 1
    40   19   20 1
    41   19   39 1
    42   21   40 1
    43   21   41 1
@<TRIPOS>MOLECULE
ZINC45957885
   24    25     0     0     0
SMALL
USER_CHARGES

@<TRIPOS>ATOM
      1 C1         -0.0184    1.5028    0.0103 C.3       1 <0>        -0.1071
      2 C2          0.0021   -0.0041    0.0020 C.ar      1 <0>        -0.0529
      3 C3          0.0055   -0.6753   -1.1934 C.ar      1 <0>        -0.0707
      4 C4          0.0241   -2.0617   -1.2460 C.ar      1 <0>        -0.0974
      5 C5          0.0395   -2.7841   -0.0653 C.ar      1 <0>         0.0099
      6 C6          0.0362   -2.1199    1.1350 C.ar      1 <0>        -0.1706
      7 C7          0.0233   -0.7094    1.2267 C.ar      1 <0>         0.1509
      8 N1          0.0278   -0.2042    2.4803 N.2       1 <0>        -0.5833
      9 C8          0.0479   -0.9684    3.5484 C.2       1 <0>         0.4208
     10 S1          0.0509   -2.6104    2.8426 S.3       1 <0>         0.0277
     11 N2          0.0553   -0.5977    4.8778 N.pl3     1 <0>        -0.5168
     12 N3          0.0770   -1.5537    5.8533 N.3       1 <0>        -0.5941
     13 C9          0.0593   -4.2906   -0.0983 C.3       1 <0>        -0.1275
     14 Br1         0.0277   -2.9548   -2.9128 Br        1 <0>        -0.0334
     15 H1          1.0042    1.8801    0.0026 H         1 <0>         0.0728
     16 H2         -0.5455    1.8639   -0.8728 H         1 <0>         0.0681
     17 H3         -0.5286    1.8543    0.9071 H         1 <0>         0.0747
     18 H4         -0.0069   -0.1122   -2.1149 H         1 <0>         0.1409
     19 H5          0.0450    0.3417    5.1194 H         1 <0>         0.4245
     20 H6          0.0800   -1.1340    6.7709 H         1 <0>         0.3762
     21 H7         -0.6969   -2.1928    5.7505 H         1 <0>         0.3469
     22 H8          1.0917   -4.6402   -0.1113 H         1 <0>         0.0845
     23 H9         -0.4450   -4.6801    0.7861 H         1 <0>         0.0715
     24 H10        -0.4543   -4.6413   -0.9934 H         1 <0>         0.0841
@<TRIPOS>BOND
     1    1    2 1
     2    1   15 1
     3    1   16 1
     4    1   17 1
     5    2    7 ar
     6    2    3 ar
     7    3    4 ar
     8    3   18 1
     9    4    5 ar
    10    4   14 1
    11    5    6 ar
    12    5   13 1
    13    6   10 1
    14    6    7 ar
    15    7    8 1
    16    8    9 2
    17    9   10 1
    18    9   11 1
    19   11   12 1
    20   11   19 1
    21   12   20 1
    22   12   21 1
    23   13   22 1
    24   13   23 1
    25   13   24 1
@<TRIPOS>MOLECULE
ZINC52060940
   34    36     0     0     0
SMALL
USER_CHARGES

@<TRIPOS>ATOM
      1 C1         -0.0164    1.3567    0.0095 C.ar      1 <0>        -0.1157
      2 C2          1.1685    2.0906    0.0021 C.ar      1 <0>        -0.1120
      3 C3          2.3785    1.4679   -0.0132 C.ar      1 <0>        -0.1068
      4 C4          2.4378    0.0637   -0.0214 C.ar      1 <0>        -0.0359
      5 C5          1.2328   -0.6827   -0.0134 C.ar      1 <0>        -0.0552
      6 C6          0.0021   -0.0041    0.0020 C.ar      1 <0>        -0.1052
      7 C7          1.2920   -2.0865   -0.0210 C.ar      1 <0>        -0.0953
      8 C8          2.5022   -2.7094   -0.0359 C.ar      1 <0>        -0.1202
      9 C9          3.6867   -1.9757   -0.0433 C.ar      1 <0>        -0.0902
     10 C10         3.6681   -0.6146   -0.0367 C.ar      1 <0>        -0.0976
     11 C11         4.9603    0.1606   -0.0459 C.3       1 <0>         0.1750
     12 N1          5.2692    0.6111    1.3134 N.pl3     1 <0>        -0.7285
     13 C12         6.4235    1.3525    1.5562 C.ar      1 <0>         0.3529
     14 C13         7.2742    1.6654    0.5013 C.ar      1 <0>        -0.1902
     15 C14         8.4171    2.4021    0.7528 C.ar      1 <0>        -0.1098
     16 C15         8.6728    2.8045    2.0628 C.ar      1 <0>         0.1093
     17 C16         7.7794    2.4557    3.0638 C.ar      1 <0>         0.0758
     18 N2          6.6953    1.7556    2.7869 N.ar      1 <0>        -0.5051
     19 N3          9.8184    3.5517    2.3640 N.pl3     1 <0>        -0.8795
     20 H1         -0.9634    1.8756    0.0259 H         1 <0>         0.1239
     21 H2          1.1258    3.1698    0.0084 H         1 <0>         0.1233
     22 H3          3.2883    2.0497   -0.0195 H         1 <0>         0.1280
     23 H4         -0.9241   -0.5595    0.0082 H         1 <0>         0.1279
     24 H5          0.3820   -2.6682   -0.0147 H         1 <0>         0.1288
     25 H6          2.5450   -3.7886   -0.0417 H         1 <0>         0.1264
     26 H7          4.6338   -2.4947   -0.0548 H         1 <0>         0.1259
     27 H8          5.7651   -0.4789   -0.4084 H         1 <0>         0.0702
     28 H9          4.8604    1.0257   -0.7015 H         1 <0>         0.0699
     29 H10         4.6700    0.3932    2.0445 H         1 <0>         0.4039
     30 H11         7.0452    1.3368   -0.5017 H         1 <0>         0.1300
     31 H12         9.0959    2.6593   -0.0469 H         1 <0>         0.1303
     32 H13         7.9706    2.7637    4.0811 H         1 <0>         0.1508
     33 H14        10.4397    3.7923    1.6590 H         1 <0>         0.3969
     34 H15         9.9905    3.8286    3.2775 H         1 <0>         0.3981
@<TRIPOS>BOND
     1    1    6 ar
     2    1    2 ar
     3    1   20 1
     4    2    3 ar
     5    2   21 1
     6    3    4 ar
     7    3   22 1
     8    4   10 ar
     9    4    5 ar
    10    5    6 ar
    11    5    7 ar
    12    6   23 1
    13    7    8 ar
    14    7   24 1
    15    8    9 ar
    16    8   25 1
    17    9   10 ar
    18    9   26 1
    19   10   11 1
    20   11   12 1
    21   11   27 1
    22   11   28 1
    23   12   13 1
    24   12   29 1
    25   13   18 ar
    26   13   14 ar
    27   14   15 ar
    28   14   30 1
    29   15   16 ar
    30   15   31 1
    31   16   17 ar
    32   16   19 1
    33   17   18 ar
    34   17   32 1
    35   19   33 1
    36   19   34 1
@<TRIPOS>MOLECULE
ZINC62152878
   27    29     0     0     0
SMALL
USER_CHARGES

@<TRIPOS>ATOM
      1 C1         -0.0169    1.3924    0.0097 C.ar      1 <0>        -0.0114
      2 C2          1.1673    2.0958    0.0022 C.ar      1 <0>        -0.2014
      3 C3          2.3813    1.4168   -0.0131 C.ar      1 <0>         0.2407
      4 C4          2.4033    0.0259   -0.0207 C.ar      1 <0>        -0.1999
      5 C5          1.2224   -0.6830   -0.0133 C.ar      1 <0>        -0.0444
      6 C6          0.0021   -0.0041    0.0020 C.ar      1 <0>        -0.1060
      7 C7         -1.2665   -0.7617    0.0106 C.2       1 <0>         0.3583
      8 N1         -1.3686   -2.1274    0.0097 N.pl3     1 <0>        -0.5955
      9 H1         -0.6330   -2.7596    0.0038 H         1 <0>         0.4265
     10 C8         -2.7159   -2.4365    0.0193 C.ar      1 <0>         0.0759
     11 C9         -3.4286   -3.6273    0.0232 C.ar      1 <0>        -0.1337
     12 C10        -4.8089   -3.6019    0.0335 C.ar      1 <0>         0.1254
     13 C11        -5.4906   -2.3896    0.0400 C.ar      1 <0>        -0.0781
     14 C12        -4.7989   -1.1995    0.0362 C.ar      1 <0>        -0.0259
     15 C13        -3.4001   -1.2085    0.0259 C.ar      1 <0>         0.0578
     16 N2         -2.4637   -0.2277    0.0258 N.2       1 <0>        -0.4820
     17 Cl1        -7.2266   -2.3773    0.0523 Cl        1 <0>        -0.0407
     18 F1         -5.5017   -4.7618    0.0368 F         1 <0>        -0.1206
     19 N3          3.5777    2.1313   -0.0211 N.pl3     1 <0>        -0.8689
     20 H2         -0.9590    1.9201    0.0260 H         1 <0>         0.1405
     21 H3          1.1533    3.1757    0.0077 H         1 <0>         0.1304
     22 H4          3.3473   -0.4986   -0.0329 H         1 <0>         0.1284
     23 H5          1.2401   -1.7629   -0.0196 H         1 <0>         0.1203
     24 H6         -2.9047   -4.5717    0.0179 H         1 <0>         0.1468
     25 H7         -5.3345   -0.2617    0.0410 H         1 <0>         0.1533
     26 H8          3.5635    3.1012   -0.0161 H         1 <0>         0.4026
     27 H9          4.4248    1.6587   -0.0317 H         1 <0>         0.4016
@<TRIPOS>BOND
     1    1    6 ar
     2    1    2 ar
     3    1   20 1
     4    2    3 ar
     5    2   21 1
     6    3    4 ar
     7    3   19 1
     8    4    5 ar
     9    4   22 1
    10    5    6 ar
    11    5   23 1
    12    6    7 1
    13    7   16 2
    14    7    8 1
    15    8    9 1
    16    8   10 1
    17   10   15 ar
    18   10   11 ar
    19   11   12 ar
    20   11   24 1
    21   12   13 ar
    22   12   18 1
    23   13   14 ar
    24   13   17 1
    25   14   15 ar
    26   14   25 1
    27   15   16 1
    28   19   26 1
    29   19   27 1
@<TRIPOS>MOLECULE
ZINC37677332
   29    30     0     0     0
SMALL
USER_CHARGES

@<TRIPOS>ATOM
      1 C1         -0.8423    1.4532    0.0669 C.3       1 <0>        -0.0791
      2 C2         -0.3405    0.0330    0.1136 C.2       1 <0>        -0.2137
      3 C3          0.4481   -0.5934   -0.8581 C.2       1 <0>         0.0721
      4 N1          0.6836   -1.8204   -0.4698 N.2       1 <0>        -0.2814
      5 N2          0.0522   -2.0186    0.7650 N.pl3     1 <0>        -0.3353
      6 C4         -0.5681   -0.8590    1.1050 C.2       1 <0>         0.0484
      7 C5          0.0629   -3.1984    1.5161 C.ar      1 <0>         0.2027
      8 C6         -0.6162   -3.2550    2.7285 C.ar      1 <0>        -0.1212
      9 C7         -0.6076   -4.4145    3.4710 C.ar      1 <0>        -0.0547
     10 C8          0.0845   -5.5359    3.0046 C.ar      1 <0>        -0.0748
     11 C9          0.7653   -5.4753    1.7856 C.ar      1 <0>        -0.0924
     12 C10         0.7476   -4.3134    1.0461 C.ar      1 <0>        -0.0831
     13 C11         1.5133   -6.6812    1.2784 C.3       1 <0>         0.5056
     14 F1          2.2659   -6.3244    0.1544 F         1 <0>        -0.1801
     15 F2          2.3672   -7.1555    2.2800 F         1 <0>        -0.1732
     16 F3          0.6013   -7.6833    0.9301 F         1 <0>        -0.1261
     17 C12         0.0966   -6.7795    3.7970 C.2       1 <0>         0.3573
     18 S1         -0.0177   -8.2963    3.0113 S.2       1 <0>        -0.4874
     19 N3          0.1976   -6.7221    5.1397 N.pl3     1 <0>        -0.7566
     20 H1         -0.1118    2.1123    0.5361 H         1 <0>         0.0680
     21 H2         -0.9884    1.7531   -0.9708 H         1 <0>         0.0700
     22 H3         -1.7896    1.5216    0.6018 H         1 <0>         0.0655
     23 H4          0.8018   -0.1412   -1.7729 H         1 <0>         0.1953
     24 H5         -1.1413   -0.6819    2.0030 H         1 <0>         0.1818
     25 H6         -1.1506   -2.3882    3.0882 H         1 <0>         0.1499
     26 H7         -1.1346   -4.4575    4.4128 H         1 <0>         0.1504
     27 H8          1.2701   -4.2670    0.1020 H         1 <0>         0.1639
     28 H9          0.2623   -5.8627    5.5849 H         1 <0>         0.4019
     29 H10         0.2055   -7.5401    5.6609 H         1 <0>         0.4262
@<TRIPOS>BOND
     1    1    2 1
     2    1   20 1
     3    1   21 1
     4    1   22 1
     5    2    6 2
     6    2    3 1
     7    3    4 2
     8    3   23 1
     9    4    5 1
    10    5    6 1
    11    5    7 1
    12    6   24 1
    13    7   12 ar
    14    7    8 ar
    15    8    9 ar
    16    8   25 1
    17    9   10 ar
    18    9   26 1
    19   10   11 ar
    20   10   17 1
    21   11   12 ar
    22   11   13 1
    23   12   27 1
    24   13   14 1
    25   13   15 1
    26   13   16 1
    27   17   18 2
    28   17   19 1
    29   19   28 1
    30   19   29 1
@<TRIPOS>MOLECULE
ZINC40714042
   24    25     0     0     0
SMALL
USER_CHARGES

@<TRIPOS>ATOM
      1 C1         -0.0162    1.3409    0.0094 C.2       1 <0>        -0.2162
      2 C2          1.3313    1.7689   -0.0012 C.2       1 <0>        -0.1768
      3 C3          2.0923    0.6599   -0.0144 C.2       1 <0>        -0.0159
      4 O1          1.2819   -0.4111   -0.0124 O.3       1 <0>        -0.1703
      5 C4          0.0021   -0.0041    0.0020 C.2       1 <0>        -0.0246
      6 C5          3.5989    0.6249   -0.0294 C.3       1 <0>        -0.0097
      7 S1          4.2202    0.6021    1.6747 S.3       1 <0>        -0.0636
      8 C6          5.9719    0.5623    1.4893 C.ar      1 <0>         0.0580
      9 C7          6.7889    0.5320    2.6234 C.ar      1 <0>         0.2016
     10 C8          8.1667    0.5009    2.4590 C.ar      1 <0>        -0.1180
     11 C9          8.6793    0.5012    1.1672 C.ar      1 <0>        -0.0981
     12 C10         7.8113    0.5321    0.0942 C.ar      1 <0>         0.0872
     13 N1          6.5036    0.5559    0.2780 N.ar      1 <0>        -0.4440
     14 Br1        10.5482    0.4602    0.8821 Br        1 <0>        -0.0275
     15 N2          6.2259    0.5334    3.9050 N.pl3     1 <0>        -0.8570
     16 H1         -0.8920    1.9726    0.0252 H         1 <0>         0.1529
     17 H2          1.6822    2.7903    0.0004 H         1 <0>         0.1527
     18 H3         -0.8653   -0.6475    0.0072 H         1 <0>         0.2073
     19 H4          3.9364   -0.2706   -0.5512 H         1 <0>         0.1108
     20 H5          3.9777    1.5089   -0.5424 H         1 <0>         0.1223
     21 H6          8.8250    0.4773    3.3148 H         1 <0>         0.1491
     22 H7          8.2074    0.5328   -0.9106 H         1 <0>         0.1670
     23 H8          5.2620    0.5556    4.0113 H         1 <0>         0.4065
     24 H9          6.7997    0.5123    4.6868 H         1 <0>         0.4063
@<TRIPOS>BOND
     1    1    5 2
     2    1    2 1
     3    1   16 1
     4    2    3 2
     5    2   17 1
     6    3    4 1
     7    3    6 1
     8    4    5 1
     9    5   18 1
    10    6    7 1
    11    6   19 1
    12    6   20 1
    13    7    8 1
    14    8   13 ar
    15    8    9 ar
    16    9   10 ar
    17    9   15 1
    18   10   11 ar
    19   10   21 1
    20   11   12 ar
    21   11   14 1
    22   12   13 ar
    23   12   22 1
    24   15   23 1
    25   15   24 1
@<TRIPOS>MOLECULE
ZINC48970143
   40    42     0     0     0
SMALL
USER_CHARGES

@<TRIPOS>ATOM
      1 C1          2.7721   -3.7629    1.4290 C.3       1 <0>        -0.1469
      2 C2          1.4263   -3.4106    0.7921 C.3       1 <0>        -0.0895
      3 C3          1.1402   -1.9214    0.9951 C.3       1 <0>        -0.1125
      4 C4         -0.2055   -1.5691    0.3581 C.3       1 <0>        -0.1292
      5 C5         -1.3128   -2.3954    1.0156 C.3       1 <0>         0.1718
      6 C6         -1.0267   -3.8846    0.8126 C.3       1 <0>        -0.1274
      7 C7          0.3191   -4.2369    1.4495 C.3       1 <0>        -0.1161
      8 N1         -1.3583   -2.0979    2.4493 N.pl3     1 <0>        -0.6561
      9 C8         -0.9822   -0.7674    2.9336 C.3       1 <0>         0.1034
     10 C9         -1.7622   -3.0876    3.3590 C.ar      1 <0>         0.1045
     11 C10        -0.8634   -3.5390    4.3208 C.ar      1 <0>        -0.0597
     12 C11        -1.2583   -4.5135    5.2186 C.ar      1 <0>        -0.1169
     13 C12        -2.5324   -5.0247    5.1512 C.ar      1 <0>        -0.1239
     14 C13        -3.4736   -4.5935    4.1908 C.ar      1 <0>         0.0107
     15 C14        -3.0479   -3.5921    3.2865 C.ar      1 <0>         0.2656
     16 N2         -3.9308   -3.1132    2.3102 N.pl3     1 <0>        -0.8561
     17 N3         -4.6663   -5.2171    4.2909 N.2       1 <0>        -0.4975
     18 C15        -4.9003   -6.1238    5.1936 C.2       1 <0>         0.0535
     19 S1         -3.4580   -6.2404    6.0529 S.3       1 <0>         0.0714
     20 H1          2.9759   -4.8239    1.2844 H         1 <0>         0.0530
     21 H2          3.5609   -3.1743    0.9606 H         1 <0>         0.0526
     22 H3          2.7382   -3.5415    2.4957 H         1 <0>         0.0533
     23 H4          1.4602   -3.6320   -0.2747 H         1 <0>         0.0644
     24 H5          1.1064   -1.7000    2.0618 H         1 <0>         0.0702
     25 H6          1.9291   -1.3327    0.5267 H         1 <0>         0.0582
     26 H7         -0.4093   -0.5082    0.5028 H         1 <0>         0.0676
     27 H8         -0.1717   -1.7905   -0.7086 H         1 <0>         0.0712
     28 H9         -2.2715   -2.1444    0.5618 H         1 <0>         0.0460
     29 H10        -1.8155   -4.4733    1.2809 H         1 <0>         0.0643
     30 H11        -0.9929   -4.1060   -0.2542 H         1 <0>         0.0673
     31 H12         0.5229   -5.2979    1.3049 H         1 <0>         0.0552
     32 H13         0.2852   -4.0155    2.5162 H         1 <0>         0.0783
     33 H14        -1.8432   -0.1017    2.8725 H         1 <0>         0.0337
     34 H15        -0.6505   -0.8381    3.9695 H         1 <0>         0.0586
     35 H16        -0.1732   -0.3723    2.3192 H         1 <0>         0.0666
     36 H17         0.1356   -3.1312    4.3653 H         1 <0>         0.1357
     37 H18        -0.5690   -4.8715    5.9690 H         1 <0>         0.1313
     38 H19        -3.6400   -2.4293    1.6869 H         1 <0>         0.4008
     39 H20        -4.8330   -3.4655    2.2574 H         1 <0>         0.4043
     40 H21        -5.8139   -6.6766    5.3554 H         1 <0>         0.2181
@<TRIPOS>BOND
     1    1    2 1
     2    1   20 1
     3    1   21 1
     4    1   22 1
     5    2    7 1
     6    2    3 1
     7    2   23 1
     8    3    4 1
     9    3   24 1
    10    3   25 1
    11    4    5 1
    12    4   26 1
    13    4   27 1
    14    5    6 1
    15    5    8 1
    16    5   28 1
    17    6    7 1
    18    6   29 1
    19    6   30 1
    20    7   31 1
    21    7   32 1
    22    8    9 1
    23    8   10 1
    24    9   33 1
    25    9   34 1
    26    9   35 1
    27   10   15 ar
    28   10   11 ar
    29   11   12 ar
    30   11   36 1
    31   12   13 ar
    32   12   37 1
    33   13   19 1
    34   13   14 ar
    35   14   15 ar
    36   14   17 1
    37   15   16 1
    38   16   38 1
    39   16   39 1
    40   17   18 2
    41   18   19 1
    42   18   40 1
@<TRIPOS>MOLECULE
ZINC58089599
   37    39     0     0     0
SMALL
USER_CHARGES

@<TRIPOS>ATOM
      1 C1         -0.0187    1.5258    0.0104 C.3       1 <0>        -0.1281
      2 C2          0.0021   -0.0041    0.0020 C.3       1 <0>        -0.0545
      3 C3          0.7874   -0.5165   -1.1832 C.ar      1 <0>        -0.1276
      4 C4          0.6212   -0.3861   -2.5437 C.ar      1 <0>        -0.0493
      5 C5          1.5225   -0.9809   -3.4093 C.ar      1 <0>        -0.1387
      6 C6          2.5872   -1.7044   -2.9034 C.ar      1 <0>        -0.0737
      7 C7          2.7560   -1.8365   -1.5408 C.ar      1 <0>        -0.1331
      8 C8          1.8526   -1.2404   -0.6629 C.ar      1 <0>         0.1468
      9 N1          1.8079   -1.2293    0.7317 N.am      1 <0>        -0.6614
     10 C9          0.7606   -0.5309    1.2016 C.2       1 <0>         0.5351
     11 O1          0.4768   -0.3550    2.3676 O.2       1 <0>        -0.4924
     12 C10         1.3440   -0.8412   -4.8991 C.3       1 <0>         0.1600
     13 H1          0.7784    0.0656   -5.1138 H         1 <0>         0.1112
     14 C11         0.5848   -2.0553   -5.4380 C.3       1 <0>        -0.0638
     15 C12         0.2987   -1.8587   -6.9044 C.2       1 <0>        -0.1362
     16 C13         1.0479   -2.2167   -7.9758 C.2       1 <0>        -0.1483
     17 C14         0.5809   -1.9325   -9.2454 C.2       1 <0>        -0.1555
     18 C15        -0.6123   -1.3041   -9.3815 C.2       1 <0>        -0.1736
     19 S1         -1.1185   -1.1006   -7.6816 S.3       1 <0>         0.0272
     20 O2          2.6252   -0.7633   -5.5272 O.3       1 <0>        -0.5452
     21 C16        -1.4240   -0.5581   -0.0161 C.3       1 <0>        -0.1275
     22 H2          1.0039    1.9031    0.0027 H         1 <0>         0.0613
     23 H3         -0.5459    1.8868   -0.8726 H         1 <0>         0.0748
     24 H4         -0.5289    1.8773    0.9072 H         1 <0>         0.0728
     25 H5         -0.2116    0.1793   -2.9350 H         1 <0>         0.1314
     26 H6          3.2902   -2.1687   -3.5791 H         1 <0>         0.1306
     27 H7          3.5897   -2.4033   -1.1535 H         1 <0>         0.1300
     28 H8          2.4583   -1.6747    1.2970 H         1 <0>         0.4143
     29 H9          1.1902   -2.9516   -5.3029 H         1 <0>         0.0919
     30 H10        -0.3545   -2.1663   -4.8962 H         1 <0>         0.0920
     31 H11         1.9956   -2.7164   -7.8395 H         1 <0>         0.1310
     32 H12         1.1584   -2.2067  -10.1159 H         1 <0>         0.1329
     33 H13        -1.1256   -1.0072  -10.2842 H         1 <0>         0.1847
     34 H14         3.1840   -1.5383   -5.3782 H         1 <0>         0.3725
     35 H15        -1.9353   -0.2158   -0.9158 H         1 <0>         0.0746
     36 H16        -1.3906   -1.6476   -0.0093 H         1 <0>         0.0609
     37 H17        -1.9619   -0.2056    0.8640 H         1 <0>         0.0729
@<TRIPOS>BOND
     1    1    2 1
     2    1   22 1
     3    1   23 1
     4    1   24 1
     5    2   10 1
     6    2    3 1
     7    2   21 1
     8    3    8 ar
     9    3    4 ar
    10    4    5 ar
    11    4   25 1
    12    5    6 ar
    13    5   12 1
    14    6    7 ar
    15    6   26 1
    16    7    8 ar
    17    7   27 1
    18    8    9 1
    19    9   10 am
    20    9   28 1
    21   10   11 2
    22   12   13 1
    23   12   14 1
    24   12   20 1
    25   14   15 1
    26   14   29 1
    27   14   30 1
    28   15   19 1
    29   15   16 2
    30   16   17 1
    31   16   31 1
    32   17   18 2
    33   17   32 1
    34   18   19 1
    35   18   33 1
    36   20   34 1
    37   21   35 1
    38   21   36 1
    39   21   37 1
@<TRIPOS>MOLECULE
ZINC62951593
   43    44     0     0     0
SMALL
USER_CHARGES

@<TRIPOS>ATOM
      1 C1         -0.0129   -0.4454    1.6028 C.3       1 <0>        -0.1575
      2 C2         -0.7092   -0.1236    0.2789 C.3       1 <0>        -0.1188
      3 C3         -1.9403   -1.0180    0.1197 C.3       1 <0>        -0.0564
      4 C4         -2.6664   -0.6595   -1.1789 C.3       1 <0>        -0.1266
      5 C5         -1.7096   -0.8418   -2.3613 C.3       1 <0>         0.0874
      6 N1         -1.1719   -2.2087   -2.3282 N.am      1 <0>        -0.6012
      7 C6         -0.5331   -2.6869   -1.0945 C.3       1 <0>         0.1095
      8 C7         -1.5031   -2.4839    0.0737 C.3       1 <0>        -0.1267
      9 C8         -1.2634   -3.0090   -3.4087 C.2       1 <0>         0.5608
     10 O1         -0.7478   -4.1097   -3.3953 O.2       1 <0>        -0.5290
     11 C9         -1.9907   -2.5483   -4.6101 C.ar      1 <0>        -0.0708
     12 C10        -2.8988   -3.3964   -5.2471 C.ar      1 <0>        -0.1156
     13 C11        -3.5763   -2.9647   -6.3686 C.ar      1 <0>        -0.0621
     14 C12        -3.3594   -1.6920   -6.8662 C.ar      1 <0>        -0.0984
     15 C13        -2.4570   -0.8395   -6.2383 C.ar      1 <0>         0.2267
     16 C14        -1.7762   -1.2626   -5.1077 C.ar      1 <0>        -0.1654
     17 N2         -2.2407    0.4453   -6.7446 N.pl3     1 <0>        -0.8689
     18 Cl1        -4.2156   -1.1575   -8.2787 Cl        1 <0>        -0.0647
     19 C15        -2.8826   -0.8041    1.3060 C.3       1 <0>        -0.1148
     20 C16        -4.0880   -1.7371    1.1745 C.3       1 <0>        -0.1576
     21 H1          0.8822    0.1689    1.7012 H         1 <0>         0.0525
     22 H2         -0.6906   -0.2352    2.4302 H         1 <0>         0.0577
     23 H3          0.2658   -1.4990    1.6201 H         1 <0>         0.0571
     24 H4         -1.0168    0.9221    0.2749 H         1 <0>         0.0626
     25 H5         -0.0206   -0.3030   -0.5467 H         1 <0>         0.0650
     26 H6         -3.5297   -1.3129   -1.3054 H         1 <0>         0.0727
     27 H7         -2.9980    0.3780   -1.1358 H         1 <0>         0.0759
     28 H8         -2.2487   -0.6837   -3.2954 H         1 <0>         0.1011
     29 H9         -0.8917   -0.1255   -2.2833 H         1 <0>         0.0727
     30 H10        -0.2959   -3.7462   -1.1927 H         1 <0>         0.0927
     31 H11         0.3807   -2.1210   -0.9132 H         1 <0>         0.0714
     32 H12        -1.0067   -2.7450    1.0084 H         1 <0>         0.0793
     33 H13        -2.3773   -3.1201   -0.0645 H         1 <0>         0.0709
     34 H14        -3.0706   -4.3907   -4.8620 H         1 <0>         0.1375
     35 H15        -4.2780   -3.6224   -6.8600 H         1 <0>         0.1411
     36 H16        -1.0785   -0.6009   -4.6161 H         1 <0>         0.1390
     37 H17        -2.7198    0.7426   -7.5340 H         1 <0>         0.4041
     38 H18        -1.6115    1.0396   -6.3067 H         1 <0>         0.4034
     39 H19        -2.3539   -1.0221    2.2339 H         1 <0>         0.0673
     40 H20        -3.2239    0.2310    1.3169 H         1 <0>         0.0619
     41 H21        -4.5590   -1.5876    0.2030 H         1 <0>         0.0561
     42 H22        -3.7577   -2.7721    1.2626 H         1 <0>         0.0556
     43 H23        -4.8061   -1.5164    1.9642 H         1 <0>         0.0524
@<TRIPOS>BOND
     1    1    2 1
     2    1   21 1
     3    1   22 1
     4    1   23 1
     5    2    3 1
     6    2   24 1
     7    2   25 1
     8    3    8 1
     9    3    4 1
    10    3   19 1
    11    4    5 1
    12    4   26 1
    13    4   27 1
    14    5    6 1
    15    5   28 1
    16    5   29 1
    17    6    7 1
    18    6    9 am
    19    7    8 1
    20    7   30 1
    21    7   31 1
    22    8   32 1
    23    8   33 1
    24    9   10 2
    25    9   11 1
    26   11   16 ar
    27   11   12 ar
    28   12   13 ar
    29   12   34 1
    30   13   14 ar
    31   13   35 1
    32   14   15 ar
    33   14   18 1
    34   15   16 ar
    35   15   17 1
    36   16   36 1
    37   17   37 1
    38   17   38 1
    39   19   20 1
    40   19   39 1
    41   19   40 1
    42   20   41 1
    43   20   42 1
    44   20   43 1
@<TRIPOS>MOLECULE
ZINC36916313
   30    31     0     0     0
SMALL
USER_CHARGES

@<TRIPOS>ATOM
      1 C1          0.0611    2.0174   -0.6154 C.3       1 <0>        -0.1465
      2 C2          0.0606    0.5307   -0.2539 C.3       1 <0>        -0.0388
      3 C3          0.7334   -0.2532   -1.3512 C.2       1 <0>        -0.2910
      4 C4          0.0949   -0.8564   -2.4509 C.2       1 <0>         0.1385
      5 N1          1.0137   -1.4463   -3.1855 N.2       1 <0>        -0.2893
      6 N2          2.2603   -1.2395   -2.5815 N.pl3     1 <0>        -0.3997
      7 C5          2.0661   -0.4991   -1.4588 C.2       1 <0>         0.3684
      8 N3          3.0540   -0.0722   -0.5756 N.pl3     1 <0>        -0.8537
      9 C6          3.5487   -1.7303   -3.0767 C.3       1 <0>         0.1039
     10 C7         -1.3620   -0.8318   -2.7330 C.ar      1 <0>         0.0131
     11 C8         -1.8193   -0.6058   -4.0296 C.ar      1 <0>        -0.0892
     12 C9         -3.1751   -0.5839   -4.2865 C.ar      1 <0>        -0.0846
     13 C10        -4.0798   -0.7854   -3.2590 C.ar      1 <0>        -0.0955
     14 C11        -3.6308   -1.0103   -1.9696 C.ar      1 <0>        -0.0846
     15 C12        -2.2770   -1.0403   -1.7031 C.ar      1 <0>        -0.0934
     16 I1         -6.1364   -0.7493   -3.6569 I         1 <0>        -0.0426
     17 H1          1.0884    2.3629   -0.7313 H         1 <0>         0.0483
     18 H2         -0.4793    2.1642   -1.5505 H         1 <0>         0.0537
     19 H3         -0.4255    2.5844    0.1783 H         1 <0>         0.0534
     20 H4          0.6010    0.3840    0.6812 H         1 <0>         0.0590
     21 H5         -0.9667    0.1853   -0.1380 H         1 <0>         0.0723
     22 H6          2.8137    0.4530    0.2038 H         1 <0>         0.4167
     23 H7          3.9825   -0.2998   -0.7396 H         1 <0>         0.3995
     24 H8          3.9885   -0.9879   -3.7427 H         1 <0>         0.0728
     25 H9          4.2187   -1.9055   -2.2350 H         1 <0>         0.0803
     26 H10         3.3976   -2.6625   -3.6210 H         1 <0>         0.0926
     27 H11        -1.1140   -0.4477   -4.8320 H         1 <0>         0.1335
     28 H12        -3.5306   -0.4088   -5.2912 H         1 <0>         0.1322
     29 H13        -4.3410   -1.1667   -1.1711 H         1 <0>         0.1332
     30 H14        -1.9275   -1.2207   -0.6973 H         1 <0>         0.1374
@<TRIPOS>BOND
     1    1    2 1
     2    1   17 1
     3    1   18 1
     4    1   19 1
     5    2    3 1
     6    2   20 1
     7    2   21 1
     8    3    7 2
     9    3    4 1
    10    4    5 2
    11    4   10 1
    12    5    6 1
    13    6    7 1
    14    6    9 1
    15    7    8 1
    16    8   22 1
    17    8   23 1
    18    9   24 1
    19    9   25 1
    20    9   26 1
    21   10   15 ar
    22   10   11 ar
    23   11   12 ar
    24   11   27 1
    25   12   13 ar
    26   12   28 1
    27   13   14 ar
    28   13   16 1
    29   14   15 ar
    30   14   29 1
    31   15   30 1
@<TRIPOS>MOLECULE
ZINC38117847
   36    38     0     0     0
SMALL
USER_CHARGES

@<TRIPOS>ATOM
      1 C1          0.3801    1.5467   -0.2833 C.ar      1 <0>        -0.1562
      2 C2          1.6410    2.0960   -0.1392 C.ar      1 <0>        -0.0737
      3 C3          2.7317    1.2747    0.0592 C.ar      1 <0>        -0.1538
      4 C4          2.5678   -0.1060    0.1138 C.ar      1 <0>         0.1536
      5 C5          1.3055   -0.6530   -0.0342 C.ar      1 <0>        -0.1643
      6 C6          0.2138    0.1767   -0.2304 C.ar      1 <0>        -0.0674
      7 C7          1.0855   -2.1439    0.0071 C.3       1 <0>         0.2352
      8 C8          2.2937   -2.8257    0.6540 C.3       1 <0>        -0.1825
      9 C9          3.5666   -2.2712    0.0016 C.3       1 <0>         0.0653
     10 O1          3.6648   -0.8814    0.3159 O.3       1 <0>        -0.3133
     11 C10        -0.1706   -2.4508    0.8250 C.3       1 <0>         0.0566
     12 O2          0.0427   -2.0711    2.1861 O.3       1 <0>        -0.5617
     13 N1          0.9132   -2.6492   -1.3572 N.pl3     1 <0>        -0.7296
     14 C11         0.7101   -4.0141   -1.5762 C.ar      1 <0>         0.2316
     15 C12         0.6621   -4.8919   -0.5007 C.ar      1 <0>        -0.2119
     16 C13         0.4613   -6.2405   -0.7203 C.ar      1 <0>        -0.0411
     17 C14         0.3083   -6.7176   -2.0100 C.ar      1 <0>        -0.1470
     18 C15         0.3556   -5.8456   -3.0832 C.ar      1 <0>        -0.0390
     19 C16         0.5500   -4.4951   -2.8694 C.ar      1 <0>        -0.1878
     20 Br1         0.0347   -8.5650   -2.3065 Br        1 <0>        -0.0584
     21 H1         -0.4751    2.1891   -0.4326 H         1 <0>         0.1260
     22 H2          1.7719    3.1671   -0.1824 H         1 <0>         0.1313
     23 H3          3.7159    1.7048    0.1722 H         1 <0>         0.1329
     24 H4         -0.7720   -0.2498   -0.3426 H         1 <0>         0.1231
     25 H5          2.3064   -2.6136    1.7231 H         1 <0>         0.1005
     26 H6          2.2376   -3.9024    0.4932 H         1 <0>         0.1023
     27 H7          4.4379   -2.7981    0.3906 H         1 <0>         0.1104
     28 H8          3.5112   -2.4002   -1.0793 H         1 <0>         0.0658
     29 H9         -1.0138   -1.8914    0.4197 H         1 <0>         0.0543
     30 H10        -0.3850   -3.5183    0.7750 H         1 <0>         0.0688
     31 H11        -0.7144   -2.2375    2.7641 H         1 <0>         0.3841
     32 H12         0.9402   -2.0362   -2.1084 H         1 <0>         0.4060
     33 H13         0.7822   -4.5202    0.5061 H         1 <0>         0.1455
     34 H14         0.4239   -6.9235    0.1155 H         1 <0>         0.1318
     35 H15         0.2362   -6.2209   -4.0889 H         1 <0>         0.1324
     36 H16         0.5824   -3.8144   -3.7072 H         1 <0>         0.1299
@<TRIPOS>BOND
     1    1    6 ar
     2    1    2 ar
     3    1   21 1
     4    2    3 ar
     5    2   22 1
     6    3    4 ar
     7    3   23 1
     8    4   10 1
     9    4    5 ar
    10    5    6 ar
    11    5    7 1
    12    6   24 1
    13    7    8 1
    14    7   11 1
    15    7   13 1
    16    8    9 1
    17    8   25 1
    18    8   26 1
    19    9   10 1
    20    9   27 1
    21    9   28 1
    22   11   12 1
    23   11   29 1
    24   11   30 1
    25   12   31 1
    26   13   14 1
    27   13   32 1
    28   14   19 ar
    29   14   15 ar
    30   15   16 ar
    31   15   33 1
    32   16   17 ar
    33   16   34 1
    34   17   18 ar
    35   17   20 1
    36   18   19 ar
    37   18   35 1
    38   19   36 1
@<TRIPOS>MOLECULE
ZINC43666562
   33    34     0     0     0
SMALL
USER_CHARGES

@<TRIPOS>ATOM
      1 C1          1.0183    0.8132    3.5685 C.3       1 <0>        -0.1182
      2 C2          0.8904   -0.3863    2.6651 C.ar      1 <0>        -0.0635
      3 C3          0.9774   -0.2314    1.2942 C.ar      1 <0>        -0.1320
      4 C4          0.8601   -1.3317    0.4656 C.ar      1 <0>        -0.0406
      5 C5          0.6563   -2.5868    1.0078 C.ar      1 <0>        -0.1313
      6 C6          0.5703   -2.7417    2.3788 C.ar      1 <0>        -0.0578
      7 C7          0.6919   -1.6421    3.2076 C.ar      1 <0>        -0.1321
      8 C8          0.3477   -4.1100    2.9699 C.3       1 <0>        -0.1303
      9 C9          0.5275   -3.7861    0.1044 C.3       1 <0>         0.1735
     10 N1          1.8613   -4.2927   -0.2278 N.pl3     1 <0>        -0.3843
     11 C10         2.5084   -5.3110    0.3958 C.2       1 <0>         0.4073
     12 C11         3.7156   -5.4639   -0.2162 C.2       1 <0>        -0.3192
     13 C12         3.8016   -4.5132   -1.2371 C.2       1 <0>         0.1068
     14 N2          2.6938   -3.8172   -1.2490 N.2       1 <0>        -0.2881
     15 I1          5.1828   -6.8730    0.2843 I         1 <0>        -0.0195
     16 N3          2.0261   -6.0614    1.4650 N.pl3     1 <0>        -0.8533
     17 C13         0.9539   -1.1627   -1.0290 C.3       1 <0>        -0.1174
     18 H1          2.0660    0.9606    3.8305 H         1 <0>         0.0729
     19 H2          0.6447    1.6978    3.0528 H         1 <0>         0.0686
     20 H3          0.4366    0.6485    4.4755 H         1 <0>         0.0680
     21 H4          1.1366    0.7491    0.8705 H         1 <0>         0.1241
     22 H5          0.6284   -1.7637    4.2789 H         1 <0>         0.1232
     23 H6          1.3103   -4.5847    3.1599 H         1 <0>         0.0797
     24 H7         -0.2022   -4.0161    3.9064 H         1 <0>         0.0757
     25 H8         -0.2261   -4.7187    2.2711 H         1 <0>         0.0641
     26 H9         -0.0407   -4.5648    0.6132 H         1 <0>         0.0960
     27 H10         0.0101   -3.4978   -0.8106 H         1 <0>         0.1072
     28 H11         4.6392   -4.3785   -1.9056 H         1 <0>         0.1849
     29 H12         1.1097   -5.9487    1.7623 H         1 <0>         0.4022
     30 H13         2.6065   -6.6968    1.9125 H         1 <0>         0.4172
     31 H14         1.9871   -1.3036   -1.3464 H         1 <0>         0.0847
     32 H15         0.3194   -1.9015   -1.5187 H         1 <0>         0.0673
     33 H16         0.6230   -0.1609   -1.3029 H         1 <0>         0.0640
@<TRIPOS>BOND
     1    1    2 1
     2    1   18 1
     3    1   19 1
     4    1   20 1
     5    2    7 ar
     6    2    3 ar
     7    3    4 ar
     8    3   21 1
     9    4    5 ar
    10    4   17 1
    11    5    6 ar
    12    5    9 1
    13    6    7 ar
    14    6    8 1
    15    7   22 1
    16    8   23 1
    17    8   24 1
    18    8   25 1
    19    9   10 1
    20    9   26 1
    21    9   27 1
    22   10   14 1
    23   10   11 1
    24   11   12 2
    25   11   16 1
    26   12   13 1
    27   12   15 1
    28   13   14 2
    29   13   28 1
    30   16   29 1
    31   16   30 1
    32   17   31 1
    33   17   32 1
    34   17   33 1
@<TRIPOS>MOLECULE
ZINC58101031
   46    48     0     0     0
SMALL
USER_CHARGES

@<TRIPOS>ATOM
      1 C1         -0.1074    1.5063   -0.3274 C.3       1 <0>        -0.1180
      2 C2         -0.0650    0.0020   -0.2474 C.ar      1 <0>        -0.0822
      3 C3          0.0780   -0.7477   -1.3999 C.ar      1 <0>        -0.1173
      4 C4          0.1169   -2.1275   -1.3265 C.ar      1 <0>        -0.1053
      5 C5          0.0132   -2.7577   -0.1005 C.ar      1 <0>        -0.1169
      6 C6         -0.1289   -2.0079    1.0521 C.ar      1 <0>        -0.1034
      7 C7         -0.1635   -0.6279    0.9791 C.ar      1 <0>        -0.1162
      8 C8          0.0546   -4.2620   -0.0206 C.3       1 <0>         0.1952
      9 H1          0.4324   -4.6655   -0.9600 H         1 <0>         0.1180
     10 C9         -1.3343   -4.7901    0.2306 C.ar      1 <0>        -0.1282
     11 C10        -1.7625   -5.0285    1.5253 C.ar      1 <0>        -0.0541
     12 C11        -3.0317   -5.5108    1.7506 C.ar      1 <0>        -0.1279
     13 C12        -3.8952   -5.7638    0.6919 C.ar      1 <0>         0.1484
     14 C13        -3.4567   -5.5225   -0.6084 C.ar      1 <0>        -0.1007
     15 C14        -2.1862   -5.0324   -0.8311 C.ar      1 <0>        -0.0358
     16 C15        -1.7220   -4.7665   -2.2399 C.3       1 <0>        -0.1314
     17 C16        -4.3747   -5.7895   -1.7733 C.3       1 <0>        -0.1162
     18 N1         -5.1157   -6.2430    1.1689 N.am      1 <0>        -0.6589
     19 C17        -5.1379   -6.3338    2.5093 C.2       1 <0>         0.5353
     20 O1         -6.0651   -6.7182    3.1901 O.2       1 <0>        -0.4943
     21 C18        -3.7876   -5.8670    3.0100 C.3       1 <0>        -0.0527
     22 C19        -3.0759   -6.9936    3.7618 C.3       1 <0>        -0.1270
     23 C20        -3.9442   -4.6375    3.9071 C.3       1 <0>        -0.1265
     24 O2          0.9156   -4.6587    1.0487 O.3       1 <0>        -0.5452
     25 H2          0.9046    1.9031   -0.2471 H         1 <0>         0.0722
     26 H3         -0.5411    1.8073   -1.2810 H         1 <0>         0.0672
     27 H4         -0.7164    1.8965    0.4880 H         1 <0>         0.0670
     28 H5          0.1591   -0.2554   -2.3578 H         1 <0>         0.1241
     29 H6          0.2280   -2.7133   -2.2270 H         1 <0>         0.1260
     30 H7         -0.2103   -2.5002    2.0099 H         1 <0>         0.1179
     31 H8         -0.2708   -0.0420    1.8800 H         1 <0>         0.1233
     32 H9         -1.1014   -4.8365    2.3575 H         1 <0>         0.1259
     33 H10        -1.3416   -5.6895   -2.6775 H         1 <0>         0.0783
     34 H11        -2.5585   -4.4001   -2.8350 H         1 <0>         0.0747
     35 H12        -0.9302   -4.0175   -2.2263 H         1 <0>         0.0759
     36 H13        -4.9509   -4.8912   -1.9952 H         1 <0>         0.0729
     37 H14        -3.7831   -6.0665   -2.6459 H         1 <0>         0.0762
     38 H15        -5.0539   -6.6039   -1.5214 H         1 <0>         0.0615
     39 H16        -5.8626   -6.4831    0.5983 H         1 <0>         0.4126
     40 H17        -2.0701   -6.6716    4.0317 H         1 <0>         0.0741
     41 H18        -3.6344   -7.2367    4.6657 H         1 <0>         0.0723
     42 H19        -3.0161   -7.8752    3.1236 H         1 <0>         0.0608
     43 H20        -4.4943   -3.8643    3.3709 H         1 <0>         0.0602
     44 H21        -4.4908   -4.9131    4.8090 H         1 <0>         0.0725
     45 H22        -2.9591   -4.2593    4.1804 H         1 <0>         0.0732
     46 H23         0.6397   -4.3343    1.9169 H         1 <0>         0.3728
@<TRIPOS>BOND
     1    1    2 1
     2    1   25 1
     3    1   26 1
     4    1   27 1
     5    2    7 ar
     6    2    3 ar
     7    3    4 ar
     8    3   28 1
     9    4    5 ar
    10    4   29 1
    11    5    6 ar
    12    5    8 1
    13    6    7 ar
    14    6   30 1
    15    7   31 1
    16    8    9 1
    17    8   10 1
    18    8   24 1
    19   10   15 ar
    20   10   11 ar
    21   11   12 ar
    22   11   32 1
    23   12   21 1
    24   12   13 ar
    25   13   14 ar
    26   13   18 1
    27   14   15 ar
    28   14   17 1
    29   15   16 1
    30   16   33 1
    31   16   34 1
    32   16   35 1
    33   17   36 1
    34   17   37 1
    35   17   38 1
    36   18   19 am
    37   18   39 1
    38   19   20 2
    39   19   21 1
    40   21   22 1
    41   21   23 1
    42   22   40 1
    43   22   41 1
    44   22   42 1
    45   23   43 1
    46   23   44 1
    47   23   45 1
    48   24   46 1
@<TRIPOS>MOLECULE
ZINC62609808
   30    32     0     0     0
SMALL
USER_CHARGES

@<TRIPOS>ATOM
      1 C1         -0.0184    1.5028    0.0103 C.3       1 <0>        -0.0748
      2 C2          0.0021   -0.0041    0.0020 C.2       1 <0>        -0.1272
      3 C3         -1.0428   -0.8724    0.0018 C.2       1 <0>        -0.1720
      4 C4         -0.7903   -2.2256   -0.0066 C.2       1 <0>        -0.0974
      5 C5          0.5114   -2.6528   -0.0146 C.2       1 <0>        -0.1236
      6 S1          1.4054   -1.1074   -0.0179 S.3       1 <0>         0.1025
      7 C6          1.0379   -4.0326   -0.0243 C.2       1 <0>         0.2421
      8 C7          2.2514   -4.4972   -0.7037 C.2       1 <0>        -0.3089
      9 C8          2.3569   -5.8483   -0.4456 C.2       1 <0>         0.3794
     10 O1          1.3152   -6.2069    0.3208 O.3       1 <0>        -0.1005
     11 N1          0.5102   -5.0742    0.5790 N.2       1 <0>        -0.3031
     12 N2          3.3575   -6.6844   -0.8971 N.pl3     1 <0>        -0.8070
     13 C9          3.1832   -3.6753   -1.5110 C.ar      1 <0>        -0.0041
     14 C10         4.2724   -3.0520   -0.9033 C.ar      1 <0>        -0.0622
     15 C11         5.1376   -2.2881   -1.6594 C.ar      1 <0>        -0.1477
     16 C12         4.9260   -2.1393   -3.0205 C.ar      1 <0>         0.1190
     17 C13         3.8454   -2.7556   -3.6297 C.ar      1 <0>        -0.1492
     18 C14         2.9768   -3.5271   -2.8830 C.ar      1 <0>         0.0071
     19 Cl1         1.6272   -4.3055   -3.6487 Cl        1 <0>        -0.0461
     20 F1          5.7762   -1.3901   -3.7561 F         1 <0>        -0.1304
     21 H1          1.0042    1.8801    0.0026 H         1 <0>         0.0749
     22 H2         -0.5455    1.8639   -0.8728 H         1 <0>         0.0853
     23 H3         -0.5286    1.8543    0.9071 H         1 <0>         0.0856
     24 H4         -2.0586   -0.5057    0.0085 H         1 <0>         0.1402
     25 H5         -1.6029   -2.9370   -0.0067 H         1 <0>         0.1393
     26 H6          4.0723   -6.3312   -1.4496 H         1 <0>         0.4272
     27 H7          3.3461   -7.6254   -0.6619 H         1 <0>         0.4157
     28 H8          4.4385   -3.1668    0.1577 H         1 <0>         0.1426
     29 H9          5.9813   -1.8048   -1.1891 H         1 <0>         0.1452
     30 H10         3.6845   -2.6363   -4.6910 H         1 <0>         0.1479
@<TRIPOS>BOND
     1    1    2 1
     2    1   21 1
     3    1   22 1
     4    1   23 1
     5    2    6 1
     6    2    3 2
     7    3    4 1
     8    3   24 1
     9    4    5 2
    10    4   25 1
    11    5    6 1
    12    5    7 1
    13    7   11 2
    14    7    8 1
    15    8    9 2
    16    8   13 1
    17    9   10 1
    18    9   12 1
    19   10   11 1
    20   12   26 1
    21   12   27 1
    22   13   18 ar
    23   13   14 ar
    24   14   15 ar
    25   14   28 1
    26   15   16 ar
    27   15   29 1
    28   16   17 ar
    29   16   20 1
    30   17   18 ar
    31   17   30 1
    32   18   19 1
@<TRIPOS>MOLECULE
ZINC35653453
   33    35     0     0     0
SMALL
USER_CHARGES

@<TRIPOS>ATOM
      1 C1         -0.0184    1.5028    0.0103 C.3       1 <0>        -0.1333
      2 C2          0.0021   -0.0041    0.0020 C.ar      1 <0>        -0.0141
      3 C3          0.0058   -0.6897   -1.2001 C.ar      1 <0>        -0.1360
      4 C4          0.0257   -2.0720   -1.2019 C.ar      1 <0>        -0.0473
      5 C5          0.0460   -2.7704   -0.0122 C.ar      1 <0>        -0.0950
      6 C6          0.0451   -2.0881    1.2016 C.ar      1 <0>         0.1284
      7 C7          0.0228   -0.6991    1.1905 C.ar      1 <0>        -0.2416
      8 C8          0.0108   -0.2435    2.6368 C.3       1 <0>         0.0513
      9 H1         -0.7446    0.5259    2.7966 H         1 <0>         0.1628
     10 C9         -0.3628   -1.5478    3.3801 C.3       1 <0>         0.0421
     11 O1          0.0740   -2.5703    2.4744 O.3       1 <0>        -0.2859
     12 N1          1.3378    0.2340    3.0478 N.4       1 <0>        -0.4738
     13 C10         1.2624    0.7771    4.4107 C.3       1 <0>        -0.0916
     14 C11         1.5593    2.2666    4.5950 C.3       1 <0>        -0.1513
     15 C12         2.5710    1.2207    5.0678 C.3       1 <0>        -0.1511
     16 C13         0.0689   -4.2772   -0.0264 C.3       1 <0>        -0.1201
     17 H2          1.0042    1.8801    0.0026 H         1 <0>         0.0794
     18 H3         -0.5455    1.8639   -0.8728 H         1 <0>         0.0882
     19 H4         -0.5286    1.8543    0.9071 H         1 <0>         0.0675
     20 H5         -0.0071   -0.1467   -2.1337 H         1 <0>         0.1436
     21 H6          0.0249   -2.6080   -2.1395 H         1 <0>         0.1472
     22 H7          0.1657   -1.6154    4.3310 H         1 <0>         0.1285
     23 H8         -1.4405   -1.6113    3.5308 H         1 <0>         0.1232
     24 H9          1.9926   -0.5334    3.0273 H         1 <0>         0.4295
     25 H10         0.5025    0.3318    5.0528 H         1 <0>         0.1778
     26 H11         1.8105    2.8437    3.7051 H         1 <0>         0.1213
     27 H12         0.9945    2.8017    5.3585 H         1 <0>         0.1357
     28 H13         2.6718    1.0677    6.1422 H         1 <0>         0.1363
     29 H14         3.4878    1.1097    4.4888 H         1 <0>         0.1218
     30 H15         1.1019   -4.6248   -0.0383 H         1 <0>         0.0782
     31 H16        -0.4320   -4.6566    0.8642 H         1 <0>         0.0735
     32 H17        -0.4468   -4.6400   -0.9156 H         1 <0>         0.0778
     33 H18         1.6463    0.9564    2.4145 H         1 <0>         0.4268
@<TRIPOS>BOND
     1    1    2 1
     2    1   17 1
     3    1   18 1
     4    1   19 1
     5    2    7 ar
     6    2    3 ar
     7    3    4 ar
     8    3   20 1
     9    4    5 ar
    10    4   21 1
    11    5    6 ar
    12    5   16 1
    13    6   11 1
    14    6    7 ar
    15    7    8 1
    16    8    9 1
    17    8   10 1
    18    8   12 1
    19   10   11 1
    20   10   22 1
    21   10   23 1
    22   12   13 1
    23   12   24 1
    24   12   33 1
    25   13   15 1
    26   13   14 1
    27   13   25 1
    28   14   15 1
    29   14   26 1
    30   14   27 1
    31   15   28 1
    32   15   29 1
    33   16   30 1
    34   16   31 1
    35   16   32 1
@<TRIPOS>MOLECULE
ZINC37490950
   45    47     0     0     0
SMALL
USER_CHARGES

@<TRIPOS>ATOM
      1 C1          0.1019    1.2672    0.3190 C.3       1 <0>        -0.1303
      2 C2          1.5386    1.7931    0.2998 C.3       1 <0>        -0.1162
      3 C3          2.1976    1.4290   -1.0321 C.3       1 <0>        -0.1431
      4 C4          2.2091   -0.0921   -1.1963 C.3       1 <0>         0.0286
      5 H1          2.7701   -0.5412   -0.3768 H         1 <0>         0.1354
      6 C5          0.7720   -0.6175   -1.1778 C.3       1 <0>        -0.0980
      7 H2          0.2104   -0.1711   -1.9984 H         1 <0>         0.0918
      8 C6          0.1134   -0.2539    0.1544 C.3       1 <0>        -0.1130
      9 C7          0.7890   -2.1404   -1.3384 C.3       1 <0>        -0.1324
     10 C8          1.5209   -2.4987   -2.6350 C.3       1 <0>        -0.1453
     11 C9          2.9301   -1.9034   -2.6001 C.3       1 <0>        -0.0276
     12 N1          2.8431   -0.4435   -2.4727 N.4       1 <0>        -0.3731
     13 C10         4.1948    0.1298   -2.5205 C.3       1 <0>         0.0322
     14 H3          4.1274    1.2175   -2.5449 H         1 <0>         0.1445
     15 C11         4.9144   -0.3649   -3.7768 C.3       1 <0>        -0.1389
     16 C12         6.3222    0.2323   -3.8267 C.3       1 <0>        -0.1171
     17 C13         7.1048   -0.2026   -2.5860 C.3       1 <0>        -0.1254
     18 C14         6.3852    0.2922   -1.3297 C.3       1 <0>        -0.1505
     19 C15         4.9774   -0.3050   -1.2798 C.3       1 <0>         0.0909
     20 H4          4.4647    0.0475   -0.3848 H         1 <0>         0.0797
     21 O1          5.0657   -1.7309   -1.2479 O.3       1 <0>        -0.5596
     22 H5         -0.3673    1.5265    1.2680 H         1 <0>         0.0796
     23 H6         -0.4605    1.7169   -0.4993 H         1 <0>         0.0703
     24 H7          1.5303    2.8768    0.4168 H         1 <0>         0.0844
     25 H8          2.1009    1.3437    1.1183 H         1 <0>         0.0725
     26 H9          1.6354    1.8786   -1.8506 H         1 <0>         0.0865
     27 H10         3.2211    1.8036   -1.0455 H         1 <0>         0.0839
     28 H11         0.6760   -0.7036    0.9726 H         1 <0>         0.0735
     29 H12        -0.9100   -0.6286    0.1681 H         1 <0>         0.0844
     30 H13         1.3066   -2.5905   -0.4913 H         1 <0>         0.0809
     31 H14        -0.2341   -2.5137   -1.3821 H         1 <0>         0.0923
     32 H15         1.5859   -3.5827   -2.7286 H         1 <0>         0.1095
     33 H16         0.9746   -2.0914   -3.4858 H         1 <0>         0.0810
     34 H17         3.4755   -2.3117   -1.7493 H         1 <0>         0.1652
     35 H18         3.4539   -2.1567   -3.5218 H         1 <0>         0.1263
     36 H19         4.9818   -1.4525   -3.7524 H         1 <0>         0.0984
     37 H20         4.3568   -0.0551   -4.6607 H         1 <0>         0.0841
     38 H21         6.8349   -0.1202   -4.7217 H         1 <0>         0.0854
     39 H22         6.2548    1.3199   -3.8511 H         1 <0>         0.0720
     40 H23         7.1722   -1.2902   -2.5616 H         1 <0>         0.0769
     41 H24         8.1078    0.2229   -2.6215 H         1 <0>         0.0779
     42 H25         6.9428   -0.0176   -0.4458 H         1 <0>         0.0867
     43 H26         6.3178    1.3798   -1.3541 H         1 <0>         0.0825
     44 H27         5.5500   -2.0780   -0.4862 H         1 <0>         0.3985
     45 H28         2.2948   -0.0709   -3.2333 H         1 <0>         0.4148
@<TRIPOS>BOND
     1    1    8 1
     2    1    2 1
     3    1   22 1
     4    1   23 1
     5    2    3 1
     6    2   24 1
     7    2   25 1
     8    3    4 1
     9    3   26 1
    10    3   27 1
    11    4    5 1
    12    4   12 1
    13    4    6 1
    14    6    7 1
    15    6    8 1
    16    6    9 1
    17    8   28 1
    18    8   29 1
    19    9   10 1
    20    9   30 1
    21    9   31 1
    22   10   11 1
    23   10   32 1
    24   10   33 1
    25   11   12 1
    26   11   34 1
    27   11   35 1
    28   12   13 1
    29   12   45 1
    30   13   14 1
    31   13   19 1
    32   13   15 1
    33   15   16 1
    34   15   36 1
    35   15   37 1
    36   16   17 1
    37   16   38 1
    38   16   39 1
    39   17   18 1
    40   17   40 1
    41   17   41 1
    42   18   19 1
    43   18   42 1
    44   18   43 1
    45   19   20 1
    46   19   21 1
    47   21   44 1
@<TRIPOS>MOLECULE
ZINC43634178
   35    36     0     0     0
SMALL
USER_CHARGES

@<TRIPOS>ATOM
      1 C1         -0.0187    1.5258    0.0104 C.3       1 <0>        -0.1879
      2 C2          0.0021   -0.0041    0.0020 C.3       1 <0>        -0.0146
      3 N1         -1.3761   -0.5125    0.0124 N.4       1 <0>        -0.5030
      4 C3         -1.3562   -1.9814    0.0044 C.3       1 <0>         0.0483
      5 H1         -0.7486   -2.3653    0.8239 H         1 <0>         0.1632
      6 C4         -0.8635   -2.5094   -1.3291 C.ar      1 <0>        -0.2433
      7 C5          0.3970   -2.6096   -1.8754 C.ar      1 <0>        -0.0501
      8 C6          0.5623   -3.1512   -3.1377 C.ar      1 <0>        -0.1362
      9 C7         -0.5411   -3.5902   -3.8463 C.ar      1 <0>        -0.0137
     10 C8         -1.8046   -3.4875   -3.3026 C.ar      1 <0>        -0.0936
     11 C9         -1.9799   -2.9403   -2.0338 C.ar      1 <0>         0.1306
     12 O1         -3.1224   -2.7303   -1.3239 O.3       1 <0>        -0.2856
     13 C10        -2.7920   -2.5541    0.0652 C.3       1 <0>         0.0723
     14 H2         -2.8047   -3.5096    0.5896 H         1 <0>         0.1316
     15 C11        -3.7454   -1.5577    0.7278 C.3       1 <0>        -0.1824
     16 C12        -2.9997   -3.9690   -4.0843 C.3       1 <0>        -0.1231
     17 C13        -0.3622   -4.1834   -5.2200 C.3       1 <0>        -0.1333
     18 H3          1.0039    1.9031    0.0027 H         1 <0>         0.1087
     19 H4         -0.5459    1.8868   -0.8726 H         1 <0>         0.0805
     20 H5         -0.5289    1.8773    0.9072 H         1 <0>         0.0814
     21 H6          0.5123   -0.3556   -0.8948 H         1 <0>         0.1305
     22 H7          0.5293   -0.3651    0.8851 H         1 <0>         0.1325
     23 H8         -1.8484   -0.1871    0.8426 H         1 <0>         0.4277
     24 H9          1.2560   -2.2652   -1.3186 H         1 <0>         0.1345
     25 H10         1.5496   -3.2306   -3.5682 H         1 <0>         0.1431
     26 H11        -3.7601   -0.6317    0.1531 H         1 <0>         0.0680
     27 H12        -4.7492   -1.9815    0.7598 H         1 <0>         0.1062
     28 H13        -3.4062   -1.3501    1.7427 H         1 <0>         0.0967
     29 H14        -3.1843   -5.0187   -3.8558 H         1 <0>         0.0799
     30 H15        -3.8743   -3.3785   -3.8114 H         1 <0>         0.0727
     31 H16        -2.8048   -3.8582   -5.1510 H         1 <0>         0.0806
     32 H17        -0.2153   -5.2600   -5.1345 H         1 <0>         0.0877
     33 H18        -1.2501   -3.9843   -5.8202 H         1 <0>         0.0824
     34 H19         0.5081   -3.7348   -5.6990 H         1 <0>         0.0797
     35 H20        -1.8641   -0.1783   -0.8050 H         1 <0>         0.4279
@<TRIPOS>BOND
     1    1    2 1
     2    1   18 1
     3    1   19 1
     4    1   20 1
     5    2    3 1
     6    2   21 1
     7    2   22 1
     8    3    4 1
     9    3   23 1
    10    3   35 1
    11    4    5 1
    12    4   13 1
    13    4    6 1
    14    6   11 ar
    15    6    7 ar
    16    7    8 ar
    17    7   24 1
    18    8    9 ar
    19    8   25 1
    20    9   10 ar
    21    9   17 1
    22   10   11 ar
    23   10   16 1
    24   11   12 1
    25   12   13 1
    26   13   14 1
    27   13   15 1
    28   15   26 1
    29   15   27 1
    30   15   28 1
    31   16   29 1
    32   16   30 1
    33   16   31 1
    34   17   32 1
    35   17   33 1
    36   17   34 1
@<TRIPOS>MOLECULE
ZINC50869279
   32    33     0     0     0
SMALL
USER_CHARGES

@<TRIPOS>ATOM
      1 C1         -1.2314    2.5341    0.0939 C.3       1 <0>        -0.1253
      2 C2         -0.2775    1.4430   -0.3192 C.ar      1 <0>        -0.0201
      3 C3          0.1678    1.3735   -1.6053 C.ar      1 <0>        -0.0896
      4 C4          1.0495    0.3720   -2.0021 C.ar      1 <0>        -0.0619
      5 C5          1.4916   -0.5659   -1.1166 C.ar      1 <0>         0.0682
      6 C6          1.0527   -0.5251    0.2199 C.ar      1 <0>         0.1258
      7 C7          0.1606    0.4982    0.6189 C.ar      1 <0>        -0.0896
      8 C8         -0.2754    0.5398    1.9651 C.ar      1 <0>         0.3463
      9 C9          0.2027   -0.4300    2.8316 C.ar      1 <0>        -0.1689
     10 C10         1.0807   -1.3984    2.3631 C.ar      1 <0>         0.2536
     11 N1          1.4701   -1.4325    1.1102 N.ar      1 <0>        -0.4776
     12 C11         1.5923   -2.4463    3.3177 C.3       1 <0>        -0.1580
     13 C12        -0.2278   -0.4335    4.2758 C.3       1 <0>        -0.1163
     14 N2         -1.1528    1.5205    2.4029 N.pl3     1 <0>        -0.7639
     15 C13        -0.7078    2.5193    3.3778 C.3       1 <0>         0.0863
     16 F1          2.3469   -1.5305   -1.5206 F         1 <0>        -0.1153
     17 H1         -0.7921    3.1123    0.9067 H         1 <0>         0.0940
     18 H2         -1.4237    3.1894   -0.7556 H         1 <0>         0.0848
     19 H3         -2.1685    2.0897    0.4293 H         1 <0>         0.0827
     20 H4         -0.1679    2.1045   -2.3259 H         1 <0>         0.1620
     21 H5          1.3883    0.3372   -3.0270 H         1 <0>         0.1684
     22 H6          0.9204   -3.3045    3.3094 H         1 <0>         0.1240
     23 H7          2.5892   -2.7622    3.0102 H         1 <0>         0.1038
     24 H8          1.6375   -2.0300    4.3241 H         1 <0>         0.1254
     25 H9         -1.3109   -0.5422    4.3318 H         1 <0>         0.0920
     26 H10         0.2482   -1.2655    4.7948 H         1 <0>         0.0885
     27 H11         0.0679    0.5047    4.7453 H         1 <0>         0.0899
     28 H12        -2.0612    1.5450    2.0636 H         1 <0>         0.4226
     29 H13        -0.9300    2.1678    4.3854 H         1 <0>         0.0636
     30 H14         0.3663    2.6736    3.2754 H         1 <0>         0.0691
     31 H15        -1.2287    3.4598    3.1980 H         1 <0>         0.0895
     32 H16         2.0845   -2.1268    0.8249 H         1 <0>         0.4459
@<TRIPOS>BOND
     1    1    2 1
     2    1   17 1
     3    1   18 1
     4    1   19 1
     5    2    7 ar
     6    2    3 ar
     7    3    4 ar
     8    3   20 1
     9    4    5 ar
    10    4   21 1
    11    5    6 ar
    12    5   16 1
    13    6   11 ar
    14    6    7 ar
    15    7    8 ar
    16    8    9 ar
    17    8   14 1
    18    9   10 ar
    19    9   13 1
    20   10   11 ar
    21   10   12 1
    22   11   32 1
    23   12   22 1
    24   12   23 1
    25   12   24 1
    26   13   25 1
    27   13   26 1
    28   13   27 1
    29   14   15 1
    30   14   28 1
    31   15   29 1
    32   15   30 1
    33   15   31 1
@<TRIPOS>MOLECULE
ZINC62994048
   40    41     0     0     0
SMALL
USER_CHARGES

@<TRIPOS>ATOM
      1 C1          0.2587    1.9305    0.0045 C.3       1 <0>        -0.1548
      2 C2          0.1238    0.4124   -0.1289 C.3       1 <0>        -0.0680
      3 C3          0.8591   -0.0563   -1.3866 C.3       1 <0>        -0.1297
      4 C4          2.3335    0.3488   -1.2920 C.3       1 <0>         0.0890
      5 N1          2.8887   -0.1766   -0.0373 N.pl3     1 <0>        -0.5461
      6 C5          2.2054    0.1390    1.2245 C.3       1 <0>         0.0795
      7 C6          0.7325   -0.2637    1.1017 C.3       1 <0>        -0.1275
      8 C7          4.0219   -0.9466   -0.0438 C.cat     1 <0>         0.5296
      9 N2          4.5640   -1.3087    1.0731 N.pl3     1 <0>        -0.7413
     10 C8          4.6365   -1.3717   -1.3525 C.3       1 <0>        -0.0980
     11 C9          6.1374   -1.7046   -1.1637 C.3       1 <0>        -0.1260
     12 C10         6.4289   -2.6545   -2.3518 C.3       1 <0>        -0.1246
     13 C11         5.1526   -3.5127   -2.4719 C.3       1 <0>        -0.1288
     14 C12         4.0130   -2.6971   -1.8365 C.3       1 <0>        -0.1140
     15 C13        -1.3563    0.0396   -0.2355 C.3       1 <0>        -0.1465
     16 H1          1.3131    2.1963    0.0809 H         1 <0>         0.0536
     17 H2         -0.1748    2.4123   -0.8719 H         1 <0>         0.0676
     18 H3         -0.2660    2.2647    0.8996 H         1 <0>         0.0661
     19 H4          0.7843   -1.1406   -1.4690 H         1 <0>         0.0783
     20 H5          0.4100    0.4076   -2.2648 H         1 <0>         0.0992
     21 H6          2.8818   -0.0677   -2.1370 H         1 <0>         0.1075
     22 H7          2.4151    1.4357   -1.3009 H         1 <0>         0.1074
     23 H8          2.6692   -0.4159    2.0400 H         1 <0>         0.0889
     24 H9          2.2765    1.2088    1.4209 H         1 <0>         0.1111
     25 H10         0.1932    0.0525    1.9946 H         1 <0>         0.0984
     26 H11         0.6589   -1.3461    0.9959 H         1 <0>         0.0775
     27 H12         5.3951   -1.8089    1.0691 H         1 <0>         0.4441
     28 H13         4.5081   -0.5927   -2.1040 H         1 <0>         0.1367
     29 H14         6.7449   -0.8022   -1.2325 H         1 <0>         0.0940
     30 H15         6.3039   -2.2121   -0.2135 H         1 <0>         0.0739
     31 H16         6.5919   -2.0834   -3.2658 H         1 <0>         0.0818
     32 H17         7.2923   -3.2833   -2.1346 H         1 <0>         0.0850
     33 H18         4.9316   -3.7084   -3.5212 H         1 <0>         0.0820
     34 H19         5.2829   -4.4528   -1.9358 H         1 <0>         0.0771
     35 H20         3.5902   -3.2412   -0.9920 H         1 <0>         0.0743
     36 H21         3.2390   -2.4969   -2.5775 H         1 <0>         0.0892
     37 H22        -1.7901    0.5214   -1.1117 H         1 <0>         0.0653
     38 H23        -1.4527   -1.0420   -0.3305 H         1 <0>         0.0591
     39 H24        -1.8805    0.3738    0.6598 H         1 <0>         0.0640
     40 H25         4.1396   -1.0801    1.9148 H         1 <0>         0.4254
@<TRIPOS>BOND
     1    1    2 1
     2    1   16 1
     3    1   17 1
     4    1   18 1
     5    2    7 1
     6    2    3 1
     7    2   15 1
     8    3    4 1
     9    3   19 1
    10    3   20 1
    11    4    5 1
    12    4   21 1
    13    4   22 1
    14    5    6 1
    15    5    8 1
    16    6    7 1
    17    6   23 1
    18    6   24 1
    19    7   25 1
    20    7   26 1
    21    8    9 2
    22    8   10 1
    23    9   27 1
    24    9   40 1
    25   10   14 1
    26   10   11 1
    27   10   28 1
    28   11   12 1
    29   11   29 1
    30   11   30 1
    31   12   13 1
    32   12   31 1
    33   12   32 1
    34   13   14 1
    35   13   33 1
    36   13   34 1
    37   14   35 1
    38   14   36 1
    39   15   37 1
    40   15   38 1
    41   15   39 1
@<TRIPOS>MOLECULE
ZINC12370488
   30    31     0     0     0
SMALL
USER_CHARGES
tert-butyl 5-bromoindazole-1-carboxylate
@<TRIPOS>ATOM
      1 C1          2.0927   -0.2306    1.2302 C.3       1 <0>        -0.1863
      2 C2          1.3046   -0.6456   -0.0139 C.3       1 <0>         0.1292
      3 C3          1.1247   -2.1650   -0.0203 C.3       1 <0>        -0.1409
      4 C4          2.0688   -0.2172   -1.2682 C.3       1 <0>        -0.1863
      5 O1          0.0021   -0.0041    0.0020 O.3       1 <0>        -0.3303
      6 C5         -0.0162    1.3417    0.0094 C.2       1 <0>         0.6897
      7 O2          1.0272    1.9632    0.0028 O.2       1 <0>        -0.5203
      8 N1         -1.1924    1.9997    0.0186 N.am      1 <0>        -0.3698
      9 C6         -1.3433    3.3687    0.0322 C.ar      1 <0>         0.1442
     10 C7         -0.4514    4.4358    0.0405 C.ar      1 <0>        -0.1070
     11 C8         -0.9304    5.7268    0.0541 C.ar      1 <0>        -0.0451
     12 C9         -2.2977    5.9744    0.0602 C.ar      1 <0>        -0.1132
     13 C10        -3.1913    4.9410    0.0433 C.ar      1 <0>        -0.0109
     14 C11        -2.7272    3.6221    0.0344 C.ar      1 <0>        -0.1598
     15 C12        -3.3838    2.3161    0.0310 C.2       1 <0>         0.1228
     16 N2         -2.4574    1.4027    0.0218 N.2       1 <0>        -0.2286
     17 Br1        -2.9273    7.7574    0.0796 Br        1 <0>        -0.0347
     18 H1          1.5482   -0.5358    2.1237 H         1 <0>         0.0639
     19 H2          3.0705   -0.7122    1.2182 H         1 <0>         0.0786
     20 H3          2.2208    0.8518    1.2347 H         1 <0>         0.0843
     21 H4          0.5633   -2.4606   -0.9066 H         1 <0>         0.0702
     22 H5          2.1025   -2.6465   -0.0322 H         1 <0>         0.0861
     23 H6          0.5802   -2.4702    0.8733 H         1 <0>         0.0702
     24 H7          2.1970    0.8653   -1.2636 H         1 <0>         0.0842
     25 H8          3.0466   -0.6987   -1.2801 H         1 <0>         0.0786
     26 H9          1.5074   -0.5128   -2.1544 H         1 <0>         0.0639
     27 H10         0.6130    4.2526    0.0366 H         1 <0>         0.1535
     28 H11        -0.2368    6.5547    0.0606 H         1 <0>         0.1482
     29 H12        -4.2524    5.1421    0.0496 H         1 <0>         0.1489
     30 H13        -4.4494    2.1405    0.0349 H         1 <0>         0.2166
@<TRIPOS>BOND
     1    1    2 1
     2    1   18 1
     3    1   19 1
     4    1   20 1
     5    2    3 1
     6    2    4 1
     7    2    5 1
     8    3   21 1
     9    3   22 1
    10    3   23 1
    11    4   24 1
    12    4   25 1
    13    4   26 1
    14    5    6 1
    15    6    7 2
    16    6    8 am
    17    8   16 1
    18    8    9 1
    19    9   14 ar
    20    9   10 ar
    21   10   11 ar
    22   10   27 1
    23   11   12 ar
    24   11   28 1
    25   12   13 ar
    26   12   17 1
    27   13   14 ar
    28   13   29 1
    29   14   15 1
    30   15   16 2
    31   15   30 1
@<TRIPOS>MOLECULE
ZINC37066192
   24    25     0     0     0
SMALL
USER_CHARGES

@<TRIPOS>ATOM
      1 C1          0.0766    1.3841    0.8004 C.ar      1 <0>        -0.0524
      2 C2          0.3161    0.8659   -0.4592 C.ar      1 <0>        -0.1395
      3 C3          1.4937    0.1925   -0.7192 C.ar      1 <0>        -0.0265
      4 C4          2.4392    0.0359    0.2860 C.ar      1 <0>        -0.2200
      5 C5          2.1962    0.5584    1.5522 C.ar      1 <0>         0.1621
      6 C6          1.0147    1.2309    1.8049 C.ar      1 <0>        -0.1628
      7 F1          3.1126    0.4083    2.5335 F         1 <0>        -0.1261
      8 S1          3.9424   -0.8230   -0.0415 S.3       1 <0>         0.1920
      9 C7          5.1410    0.4592   -0.1960 C.ar      1 <0>         0.1667
     10 C8          6.4841    0.1319   -0.3552 C.ar      1 <0>        -0.1020
     11 C9          7.4148    1.1480   -0.4758 C.ar      1 <0>         0.0279
     12 C10         6.9705    2.4627   -0.4332 C.ar      1 <0>        -0.1699
     13 C11         5.6213    2.7165   -0.2726 C.ar      1 <0>         0.2370
     14 N1          4.7547    1.7261   -0.1651 N.ar      1 <0>        -0.4702
     15 Cl1         5.0584    4.3577   -0.2178 Cl        1 <0>         0.0096
     16 N2          6.9112   -1.2849   -0.3945 N.pl3     1 <0>         0.0419
     17 O1          8.0802   -1.5602   -0.5331 O.2       1 <0>        -0.1459
     18 O2          6.0910   -2.1666   -0.2879 O.3       1 <0>        -0.1387
     19 H1         -0.8435    1.9137    0.9989 H         1 <0>         0.1404
     20 H2         -0.4191    0.9877   -1.2409 H         1 <0>         0.1387
     21 H3          1.6789   -0.2122   -1.7032 H         1 <0>         0.1417
     22 H4          0.8246    1.6371    2.7873 H         1 <0>         0.1426
     23 H5          8.4640    0.9236   -0.6001 H         1 <0>         0.1806
     24 H6          7.6720    3.2788   -0.5241 H         1 <0>         0.1726
@<TRIPOS>BOND
     1    1    6 ar
     2    1    2 ar
     3    1   19 1
     4    2    3 ar
     5    2   20 1
     6    3    4 ar
     7    3   21 1
     8    4    5 ar
     9    4    8 1
    10    5    6 ar
    11    5    7 1
    12    6   22 1
    13    8    9 1
    14    9   14 ar
    15    9   10 ar
    16   10   11 ar
    17   10   16 1
    18   11   12 ar
    19   11   23 1
    20   12   13 ar
    21   12   24 1
    22   13   14 ar
    23   13   15 1
    24   16   17 2
    25   16   18 1
@<TRIPOS>MOLECULE
ZINC43214964
   42    45     0     0     0
SMALL
USER_CHARGES

@<TRIPOS>ATOM
      1 C1         -0.0187    1.5258    0.0104 C.3       1 <0>        -0.1650
      2 C2          0.0021   -0.0041    0.0020 C.3       1 <0>         0.2984
      3 O1          0.6730   -0.4715   -1.1803 O.3       1 <0>        -0.3669
      4 C3          2.0389   -0.7075   -0.7621 C.3       1 <0>         0.0155
      5 C4          1.8391   -1.2415    0.6784 C.3       1 <0>         0.0202
      6 O2          0.7090   -0.4825    1.1538 O.3       1 <0>        -0.3722
      7 C5         -1.4102   -0.5296    0.0203 C.ar      1 <0>        -0.1016
      8 C6         -2.0374   -0.7700    1.2415 C.ar      1 <0>        -0.0856
      9 C7         -3.3118   -1.2449    1.2933 C.ar      1 <0>        -0.1121
     10 C8         -4.0088   -1.4972    0.0993 C.ar      1 <0>        -0.0396
     11 C9         -5.3259   -1.9872    0.1127 C.ar      1 <0>        -0.1121
     12 C10        -5.9699   -2.2195   -1.0636 C.ar      1 <0>        -0.0855
     13 C11        -5.3427   -1.9792   -2.2848 C.ar      1 <0>        -0.1015
     14 C12        -4.0680   -1.5052   -2.3364 C.ar      1 <0>        -0.0691
     15 C13        -3.3712   -1.2524   -1.1424 C.ar      1 <0>        -0.0588
     16 C14        -2.0560   -0.7571   -1.1558 C.ar      1 <0>        -0.0691
     17 C15        -6.0869   -2.2486   -3.5671 C.3       1 <0>         0.2985
     18 O3         -5.6263   -1.3506   -4.5907 O.3       1 <0>        -0.3670
     19 C16        -6.8056   -1.0449   -5.3732 C.3       1 <0>         0.0155
     20 C17        -7.9053   -1.0058   -4.2828 C.3       1 <0>         0.0203
     21 O4         -7.4900   -2.0362   -3.3635 O.3       1 <0>        -0.3722
     22 C18        -5.8445   -3.6935   -4.0082 C.3       1 <0>        -0.1652
     23 H1          1.0039    1.9031    0.0027 H         1 <0>         0.0677
     24 H2         -0.5459    1.8868   -0.8726 H         1 <0>         0.0780
     25 H3         -0.5289    1.8773    0.9072 H         1 <0>         0.0774
     26 H4          2.5163   -1.4570   -1.3933 H         1 <0>         0.1113
     27 H5          2.6117    0.2198   -0.7585 H         1 <0>         0.0784
     28 H6          1.6097   -2.3070    0.6659 H         1 <0>         0.0776
     29 H7          2.7204   -1.0432    1.2884 H         1 <0>         0.1029
     30 H8         -1.5040   -0.5770    2.1605 H         1 <0>         0.1299
     31 H9         -3.7848   -1.4272    2.2469 H         1 <0>         0.1307
     32 H10        -5.8244   -2.1787    1.0514 H         1 <0>         0.1307
     33 H11        -6.9821   -2.5960   -1.0505 H         1 <0>         0.1299
     34 H12        -3.5944   -1.3243   -3.2901 H         1 <0>         0.1336
     35 H13        -1.5590   -0.5620   -2.0946 H         1 <0>         0.1335
     36 H14        -6.7080   -0.0766   -5.8640 H         1 <0>         0.1113
     37 H15        -7.0055   -1.8313   -6.1010 H         1 <0>         0.0784
     38 H16        -7.9240   -0.0340   -3.7893 H         1 <0>         0.0776
     39 H17        -8.8800   -1.2408   -4.7102 H         1 <0>         0.1029
     40 H18        -6.1991   -4.3740   -3.2341 H         1 <0>         0.0773
     41 H19        -6.3838   -3.8856   -4.9357 H         1 <0>         0.0677
     42 H20        -4.7779   -3.8502   -4.1689 H         1 <0>         0.0780
@<TRIPOS>BOND
     1    1    2 1
     2    1   23 1
     3    1   24 1
     4    1   25 1
     5    2    6 1
     6    2    3 1
     7    2    7 1
     8    3    4 1
     9    4    5 1
    10    4   26 1
    11    4   27 1
    12    5    6 1
    13    5   28 1
    14    5   29 1
    15    7   16 ar
    16    7    8 ar
    17    8    9 ar
    18    8   30 1
    19    9   10 ar
    20    9   31 1
    21   10   15 ar
    22   10   11 ar
    23   11   12 ar
    24   11   32 1
    25   12   13 ar
    26   12   33 1
    27   13   14 ar
    28   13   17 1
    29   14   15 ar
    30   14   34 1
    31   15   16 ar
    32   16   35 1
    33   17   21 1
    34   17   18 1
    35   17   22 1
    36   18   19 1
    37   19   20 1
    38   19   36 1
    39   19   37 1
    40   20   21 1
    41   20   38 1
    42   20   39 1
    43   22   40 1
    44   22   41 1
    45   22   42 1
@<TRIPOS>MOLECULE
ZINC60374684
   38    41     0     0     0
SMALL
USER_CHARGES

@<TRIPOS>ATOM
      1 C1         -0.6826    1.3243    0.2415 C.3       1 <0>         0.0952
      2 N1         -0.2290   -0.0613    0.0986 N.pl3     1 <0>        -0.3633
      3 C2         -0.5328   -0.8860   -0.9185 C.2       1 <0>         0.0866
      4 C3          0.0927   -2.0946   -0.6707 C.2       1 <0>        -0.2327
      5 C4          0.7922   -1.9584    0.5511 C.2       1 <0>         0.0688
      6 N2          0.5984   -0.7471    0.9947 N.2       1 <0>        -0.2969
      7 C5          0.0399   -3.2945   -1.5172 C.2       1 <0>         0.0256
      8 C6          0.1616   -4.5199   -0.9607 C.2       1 <0>        -0.2030
      9 C7          0.1717   -4.7304    0.5402 C.3       1 <0>        -0.0834
     10 C8         -0.9525   -5.6774    0.9582 C.3       1 <0>        -0.0417
     11 C9         -0.9411   -6.9257    0.0925 C.2       1 <0>         0.1595
     12 C10        -0.3540   -6.9097   -1.1735 C.2       1 <0>        -0.3381
     13 S1         -0.6111   -8.5578   -1.7466 S.3       1 <0>         0.2306
     14 C11        -1.4146   -9.1389   -0.3819 C.2       1 <0>         0.0995
     15 N3         -1.4557   -8.0903    0.4244 N.2       1 <0>        -0.5274
     16 C12        -1.9461  -10.4968   -0.1433 C.ar      1 <0>        -0.0284
     17 C13        -2.5938  -10.7953    1.0569 C.ar      1 <0>        -0.0654
     18 C14        -3.0876  -12.0651    1.2733 C.ar      1 <0>        -0.1217
     19 C15        -2.9417  -13.0419    0.3043 C.ar      1 <0>        -0.0962
     20 C16        -2.3005  -12.7529   -0.8873 C.ar      1 <0>        -0.1173
     21 C17        -1.8079  -11.4854   -1.1193 C.ar      1 <0>        -0.0928
     22 C18         0.2889   -5.7564   -1.7796 C.2       1 <0>         0.4865
     23 O1          0.8747   -5.7997   -2.8481 O.2       1 <0>        -0.4465
     24 H1          0.0327    1.9921   -0.2387 H         1 <0>         0.0803
     25 H2         -1.6587    1.4376   -0.2302 H         1 <0>         0.0916
     26 H3         -0.7592    1.5742    1.2997 H         1 <0>         0.0937
     27 H4         -1.1515   -0.6489   -1.7714 H         1 <0>         0.1836
     28 H5          1.3862   -2.7222    1.0308 H         1 <0>         0.1935
     29 H6         -0.0963   -3.1971   -2.5842 H         1 <0>         0.1304
     30 H7          1.1298   -5.1570    0.8368 H         1 <0>         0.0795
     31 H8          0.0368   -3.7704    1.0386 H         1 <0>         0.1010
     32 H9         -0.8160   -5.9609    2.0017 H         1 <0>         0.0956
     33 H10        -1.9111   -5.1704    0.8474 H         1 <0>         0.0937
     34 H11        -2.7077  -10.0339    1.8144 H         1 <0>         0.1366
     35 H12        -3.5889  -12.2973    2.2013 H         1 <0>         0.1321
     36 H13        -3.3299  -14.0345    0.4789 H         1 <0>         0.1301
     37 H14        -2.1897  -13.5201   -1.6393 H         1 <0>         0.1333
     38 H15        -1.3122  -11.2597   -2.0519 H         1 <0>         0.1277
@<TRIPOS>BOND
     1    1    2 1
     2    1   24 1
     3    1   25 1
     4    1   26 1
     5    2    6 1
     6    2    3 1
     7    3    4 2
     8    3   27 1
     9    4    5 1
    10    4    7 1
    11    5    6 2
    12    5   28 1
    13    7    8 2
    14    7   29 1
    15    8   22 1
    16    8    9 1
    17    9   10 1
    18    9   30 1
    19    9   31 1
    20   10   11 1
    21   10   32 1
    22   10   33 1
    23   11   15 1
    24   11   12 2
    25   12   13 1
    26   12   22 1
    27   13   14 1
    28   14   15 2
    29   14   16 1
    30   16   21 ar
    31   16   17 ar
    32   17   18 ar
    33   17   34 1
    34   18   19 ar
    35   18   35 1
    36   19   20 ar
    37   19   36 1
    38   20   21 ar
    39   20   37 1
    40   21   38 1
    41   22   23 2
@<TRIPOS>MOLECULE
ZINC66796769
   24    25     0     0     0
SMALL
USER_CHARGES

@<TRIPOS>ATOM
      1 C1          0.5830    0.3618   -1.2088 C.ar      1 <0>        -0.0243
      2 C2          1.7685    1.0707   -1.2175 C.ar      1 <0>        -0.1502
      3 C3          2.3779    1.4175   -0.0239 C.ar      1 <0>         0.1512
      4 C4          1.8001    1.0547    1.1827 C.ar      1 <0>        -0.0880
      5 C5          0.6143    0.3455    1.1960 C.ar      1 <0>        -0.0210
      6 C6          0.0015   -0.0032   -0.0013 C.ar      1 <0>        -0.2037
      7 S1         -1.5110   -0.9070    0.0122 S.3       1 <0>         0.1648
      8 C7         -1.0051   -2.5869   -0.1509 C.ar      1 <0>        -0.0241
      9 C8          0.3472   -2.9316   -0.1421 C.ar      1 <0>        -0.1853
     10 C9          0.7012   -4.2576   -0.2723 C.ar      1 <0>         0.1682
     11 N1         -0.2199   -5.1943   -0.4040 N.ar      1 <0>        -0.4775
     12 C10        -1.5086   -4.9091   -0.4171 C.ar      1 <0>         0.2000
     13 C11        -1.9462   -3.6080   -0.2864 C.ar      1 <0>        -0.1016
     14 N2         -3.3937   -3.2983   -0.2958 N.pl3     1 <0>         0.0410
     15 O1         -4.2018   -4.1898   -0.4137 O.2       1 <0>        -0.1462
     16 O2         -3.7677   -2.1540   -0.1855 O.3       1 <0>        -0.1462
     17 Cl1         2.5668    1.4910    2.6778 Cl        1 <0>        -0.0316
     18 F1          3.5378    2.1101   -0.0351 F         1 <0>        -0.1147
     19 H1          0.1060    0.0953   -2.1404 H         1 <0>         0.1517
     20 H2          2.2205    1.3545   -2.1564 H         1 <0>         0.1573
     21 H3          0.1644    0.0622    2.1360 H         1 <0>         0.1557
     22 H4          1.1058   -2.1703   -0.0350 H         1 <0>         0.1543
     23 H5          1.7453   -4.5336   -0.2670 H         1 <0>         0.1804
     24 H6         -2.2297   -5.7055   -0.5273 H         1 <0>         0.1900
@<TRIPOS>BOND
     1    1    6 ar
     2    1    2 ar
     3    1   19 1
     4    2    3 ar
     5    2   20 1
     6    3    4 ar
     7    3   18 1
     8    4    5 ar
     9    4   17 1
    10    5    6 ar
    11    5   21 1
    12    6    7 1
    13    7    8 1
    14    8   13 ar
    15    8    9 ar
    16    9   10 ar
    17    9   22 1
    18   10   11 ar
    19   10   23 1
    20   11   12 ar
    21   12   13 ar
    22   12   24 1
    23   13   14 1
    24   14   15 2
    25   14   16 1
@<TRIPOS>MOLECULE
ZINC00043767
   44    46     0     0     0
SMALL
USER_CHARGES
ethyl 2-methyl-4-(5-methyl-2-thienyl)-5-oxo-4,6,7,8-tetrahydro-1H-quinoline-3-carboxylate
@<TRIPOS>ATOM
      1 C1          8.4541    3.4234    0.8499 C.3       1 <0>        -0.1536
      2 C2          8.1067    2.0326    0.3150 C.3       1 <0>         0.0607
      3 O1          6.7142    1.9784   -0.0018 O.3       1 <0>        -0.3382
      4 C3          6.2419    0.8120   -0.4892 C.2       1 <0>         0.5075
      5 O2          6.9934   -0.1329   -0.6408 O.2       1 <0>        -0.4879
      6 C4          4.8732    0.6880   -0.8240 C.3       1 <0>        -0.1751
      7 C5          4.4387   -0.4376   -1.4165 C.2       1 <0>         0.2540
      8 N1          3.1197   -0.5836   -1.7438 N.2       1 <0>        -0.5381
      9 C6          2.1626    0.1933   -1.1481 C.2       1 <0>         0.1919
     10 C7          2.5003    1.3484   -0.5370 C.2       1 <0>        -0.2925
     11 C8          3.9344    1.8141   -0.5086 C.3       1 <0>         0.0972
     12 H1          4.1632    2.2083    0.4815 H         1 <0>         0.1243
     13 C9          4.1201    2.9066   -1.5299 C.2       1 <0>        -0.1845
     14 C10         4.5177    4.1893   -1.3450 C.2       1 <0>        -0.0985
     15 C11         4.6194    5.0242   -2.4420 C.2       1 <0>        -0.1659
     16 C12         4.3186    4.5357   -3.6701 C.2       1 <0>        -0.1208
     17 S1          3.8812    2.8453   -3.2980 S.3       1 <0>         0.0151
     18 C13         4.3505    5.2361   -5.0040 C.3       1 <0>        -0.0744
     19 C14         1.5289    2.1492    0.0889 C.2       1 <0>         0.4004
     20 O3          1.8650    3.1888    0.6206 O.2       1 <0>        -0.4649
     21 C15         0.0806    1.7427    0.1117 C.3       1 <0>        -0.1576
     22 C16        -0.0093    0.2141    0.0563 C.3       1 <0>        -0.1151
     23 C17         0.7282   -0.2725   -1.1912 C.3       1 <0>        -0.0798
     24 C18         5.4126   -1.5463   -1.7220 C.3       1 <0>        -0.1118
     25 H2          7.8692    3.6240    1.7475 H         1 <0>         0.0688
     26 H3          9.5161    3.4649    1.0916 H         1 <0>         0.0828
     27 H4          8.2245    4.1721    0.0918 H         1 <0>         0.0673
     28 H5          8.3363    1.2840    1.0732 H         1 <0>         0.0734
     29 H6          8.6916    1.8321   -0.5826 H         1 <0>         0.0710
     30 H7          4.7231    1.0383   -1.7485 H         1 <0>         0.1848
     31 H8          4.7518    4.5533   -0.3556 H         1 <0>         0.1396
     32 H9          4.9341    6.0503   -2.3224 H         1 <0>         0.1381
     33 H10         5.3373    5.1198   -5.4520 H         1 <0>         0.0821
     34 H11         3.5990    4.7993   -5.6618 H         1 <0>         0.0757
     35 H12         4.1382    6.2959   -4.8630 H         1 <0>         0.0853
     36 H13        -0.3890    2.1380   -0.6778 H         1 <0>         0.0912
     37 H14        -0.3848    2.1024    1.0293 H         1 <0>         0.0979
     38 H15         0.4565   -0.2125    0.9446 H         1 <0>         0.0742
     39 H16        -1.0549   -0.0897    0.0060 H         1 <0>         0.0884
     40 H17         0.7012   -1.3615   -1.2302 H         1 <0>         0.0981
     41 H18         0.2415    0.1346   -2.0774 H         1 <0>         0.0970
     42 H19         5.8093   -1.9488   -0.7899 H         1 <0>         0.1108
     43 H20         4.9021   -2.3374   -2.2712 H         1 <0>         0.0861
     44 H21         6.2312   -1.1547   -2.3260 H         1 <0>         0.0949
@<TRIPOS>BOND
     1    1    2 1
     2    1   25 1
     3    1   26 1
     4    1   27 1
     5    2    3 1
     6    2   28 1
     7    2   29 1
     8    3    4 1
     9    4    5 2
    10    4    6 1
    11    6   11 1
    12    6    7 1
    13    6   30 1
    14    7   24 1
    15    7    8 2
    16    8    9 1
    17    9   23 1
    18    9   10 2
    19   10   11 1
    20   10   19 1
    21   11   12 1
    22   11   13 1
    23   13   17 1
    24   13   14 2
    25   14   15 1
    26   14   31 1
    27   15   16 2
    28   15   32 1
    29   16   17 1
    30   16   18 1
    31   18   33 1
    32   18   34 1
    33   18   35 1
    34   19   20 2
    35   19   21 1
    36   21   22 1
    37   21   36 1
    38   21   37 1
    39   22   23 1
    40   22   38 1
    41   22   39 1
    42   23   40 1
    43   23   41 1
    44   24   42 1
    45   24   43 1
    46   24   44 1
@<TRIPOS>MOLECULE
ZINC19943009
   43    44     0     0     0
SMALL
USER_CHARGES
(3R,5S)-1-(4-chloro-3-ethoxy-phenyl)sulfonyl-3,5-dimethyl-piperidine
@<TRIPOS>ATOM
      1 C1          0.0614    5.5981    0.0302 C.3       1 <0>        -0.1541
      2 C2         -0.1212    4.0790    0.0242 C.3       1 <0>         0.0449
      3 O1          1.1595    3.4454    0.0090 O.3       1 <0>        -0.2999
      4 C3          1.1755    2.0862    0.0020 C.ar      1 <0>         0.1244
      5 C4         -0.0167    1.3773    0.0096 C.ar      1 <0>        -0.1018
      6 C5          0.0021   -0.0041    0.0020 C.ar      1 <0>        -0.6374
      7 C6          1.2079   -0.6807   -0.0131 C.ar      1 <0>        -0.0459
      8 C7          2.3980    0.0227   -0.0212 C.ar      1 <0>        -0.0915
      9 C8          2.3850    1.4052   -0.0136 C.ar      1 <0>        -0.0191
     10 Cl1         3.8796    2.2883   -0.0232 Cl        1 <0>        -0.0381
     11 S1         -1.5123   -0.9047    0.0111 S.o2      1 <0>         2.6894
     12 O2         -1.2198   -2.1856    0.5524 O.2       1 <0>        -0.9467
     13 O3         -2.4928   -0.0449    0.5755 O.2       1 <0>        -0.9500
     14 N1         -1.9476   -1.1465   -1.5683 N.pl3     1 <0>        -0.9947
     15 C9         -2.7956   -0.1722   -2.2686 C.3       1 <0>         0.1182
     16 C10        -3.9999   -0.8987   -2.8649 C.3       1 <0>        -0.1042
     17 H1         -4.6279   -1.2921   -2.0520 H         1 <0>         0.0781
     18 C11        -3.5128   -2.0540   -3.7424 C.3       1 <0>        -0.1095
     19 C12        -2.7217   -3.0473   -2.8883 C.3       1 <0>        -0.1041
     20 H2         -3.3608   -3.4255   -2.0768 H         1 <0>         0.0782
     21 C13        -1.4983   -2.3424   -2.2940 C.3       1 <0>         0.1178
     22 C14        -2.2631   -4.2183   -3.7597 C.3       1 <0>        -0.1493
     23 C15        -4.8191    0.0764   -3.7127 C.3       1 <0>        -0.1490
     24 H3         -0.9245    6.0858    0.0419 H         1 <0>         0.0839
     25 H4          0.6116    5.9048   -0.8716 H         1 <0>         0.0691
     26 H5          0.6284    5.8957    0.9246 H         1 <0>         0.0697
     27 H6         -0.6714    3.7723    0.9260 H         1 <0>         0.0699
     28 H7         -0.6882    3.7814   -0.8702 H         1 <0>         0.0673
     29 H8         -0.9590    1.9049    0.0169 H         1 <0>         0.1523
     30 H9          1.2200   -1.7606   -0.0190 H         1 <0>         0.1518
     31 H10         3.3385   -0.5081   -0.0330 H         1 <0>         0.1524
     32 H11        -3.1391    0.5931   -1.5571 H         1 <0>         0.0937
     33 H12        -2.2168    0.3073   -3.0717 H         1 <0>         0.0720
     34 H13        -4.3782   -2.5644   -4.1902 H         1 <0>         0.0688
     35 H14        -2.8657   -1.6608   -4.5403 H         1 <0>         0.0665
     36 H15        -0.8109   -2.0456   -3.0998 H         1 <0>         0.0732
     37 H16        -0.9788   -3.0191   -1.5996 H         1 <0>         0.0958
     38 H17        -1.6946   -4.9319   -3.1453 H         1 <0>         0.0602
     39 H18        -1.6233   -3.8425   -4.5717 H         1 <0>         0.0579
     40 H19        -3.1418   -4.7223   -4.1885 H         1 <0>         0.0611
     41 H20        -5.6856   -0.4487   -4.1410 H         1 <0>         0.0616
     42 H21        -4.1919    0.4723   -4.5251 H         1 <0>         0.0578
     43 H22        -5.1687    0.9067   -3.0815 H         1 <0>         0.0595
@<TRIPOS>BOND
     1    1    2 1
     2    1   24 1
     3    1   25 1
     4    1   26 1
     5    2    3 1
     6    2   27 1
     7    2   28 1
     8    3    4 1
     9    4    9 ar
    10    4    5 ar
    11    5    6 ar
    12    5   29 1
    13    6    7 ar
    14    6   11 1
    15    7    8 ar
    16    7   30 1
    17    8    9 ar
    18    8   31 1
    19    9   10 1
    20   11   12 2
    21   11   13 2
    22   11   14 1
    23   14   21 1
    24   14   15 1
    25   15   16 1
    26   15   32 1
    27   15   33 1
    28   16   17 1
    29   16   18 1
    30   16   23 1
    31   18   19 1
    32   18   34 1
    33   18   35 1
    34   19   20 1
    35   19   21 1
    36   19   22 1
    37   21   36 1
    38   21   37 1
    39   22   38 1
    40   22   39 1
    41   22   40 1
    42   23   41 1
    43   23   42 1
    44   23   43 1
@<TRIPOS>MOLECULE
ZINC19084615
   44    46     0     0     0
SMALL
USER_CHARGES

@<TRIPOS>ATOM
      1 C1         -0.0187    1.5258    0.0104 C.3       1 <0>        -0.1448
      2 C2          0.0021   -0.0041    0.0020 C.3       1 <0>         0.0165
      3 C3          0.7421   -0.5109    1.2415 C.3       1 <0>        -0.1387
      4 C4         -1.4333   -0.5336    0.0129 C.3       1 <0>        -0.1388
      5 C5          0.7074   -0.4901   -1.2379 C.2       1 <0>         0.2629
      6 N1          0.9024   -1.7711   -1.5702 N.2       1 <0>        -0.5372
      7 C6          1.5448   -1.8471   -2.7026 C.2       1 <0>         0.3011
      8 O1          1.7829   -0.6021   -3.1339 O.3       1 <0>        -0.1020
      9 N2          1.2215    0.2685   -2.1629 N.2       1 <0>        -0.3346
     10 C7          1.9494   -3.1176   -3.4049 C.3       1 <0>        -0.0294
     11 H1          1.6197   -3.9900   -2.8407 H         1 <0>         0.1258
     12 C8          1.3817   -3.1512   -4.8483 C.3       1 <0>        -0.1227
     13 C9          2.3972   -4.0777   -5.5624 C.3       1 <0>         0.0437
     14 N3          3.7058   -3.7340   -4.9665 N.3       1 <0>        -0.5177
     15 C10         3.4761   -3.1561   -3.6263 C.3       1 <0>         0.0503
     16 C11         4.5738   -4.9163   -4.8846 C.3       1 <0>         0.0854
     17 C12         5.0002   -5.3235   -6.2714 C.ar      1 <0>        -0.0755
     18 C13         4.2328   -6.2165   -6.9959 C.ar      1 <0>        -0.1006
     19 C14         4.6233   -6.5904   -8.2679 C.ar      1 <0>        -0.1107
     20 C15         5.7824   -6.0707   -8.8162 C.ar      1 <0>        -0.0333
     21 C16         6.5499   -5.1770   -8.0907 C.ar      1 <0>        -0.1106
     22 C17         6.1554   -4.7996   -6.8209 C.ar      1 <0>        -0.0845
     23 Cl1         6.2737   -6.5403  -10.4136 Cl        1 <0>        -0.0698
     24 H2          1.0039    1.9031    0.0027 H         1 <0>         0.0633
     25 H3         -0.5459    1.8868   -0.8726 H         1 <0>         0.0632
     26 H4         -0.5289    1.8773    0.9072 H         1 <0>         0.0738
     27 H5          0.2319   -0.1594    2.1383 H         1 <0>         0.0742
     28 H6          0.7568   -1.6008    1.2356 H         1 <0>         0.0697
     29 H7          1.7647   -0.1336    1.2338 H         1 <0>         0.0576
     30 H8         -1.9605   -0.1726   -0.8702 H         1 <0>         0.0574
     31 H9         -1.4185   -1.6235    0.0069 H         1 <0>         0.0698
     32 H10        -1.9435   -0.1821    0.9097 H         1 <0>         0.0742
     33 H11         0.3810   -3.5829   -4.8643 H         1 <0>         0.0896
     34 H12         1.3829   -2.1554   -5.2916 H         1 <0>         0.0889
     35 H13         2.1562   -5.1234   -5.3715 H         1 <0>         0.0565
     36 H14         2.4042   -3.8785   -6.6340 H         1 <0>         0.0920
     37 H15         3.8825   -2.1456   -3.5842 H         1 <0>         0.0901
     38 H16         3.9457   -3.7790   -2.8650 H         1 <0>         0.0737
     39 H17         5.4551   -4.6794   -4.2884 H         1 <0>         0.0893
     40 H18         4.0283   -5.7358   -4.4168 H         1 <0>         0.0525
     41 H19         3.3282   -6.6224   -6.5676 H         1 <0>         0.1286
     42 H20         4.0239   -7.2883   -8.8336 H         1 <0>         0.1333
     43 H21         7.4550   -4.7713   -8.5181 H         1 <0>         0.1340
     44 H22         6.7520   -4.0983   -6.2564 H         1 <0>         0.1331
@<TRIPOS>BOND
     1    1    2 1
     2    1   24 1
     3    1   25 1
     4    1   26 1
     5    2    3 1
     6    2    4 1
     7    2    5 1
     8    3   27 1
     9    3   28 1
    10    3   29 1
    11    4   30 1
    12    4   31 1
    13    4   32 1
    14    5    9 2
    15    5    6 1
    16    6    7 2
    17    7    8 1
    18    7   10 1
    19    8    9 1
    20   10   11 1
    21   10   15 1
    22   10   12 1
    23   12   13 1
    24   12   33 1
    25   12   34 1
    26   13   14 1
    27   13   35 1
    28   13   36 1
    29   14   15 1
    30   14   16 1
    31   15   37 1
    32   15   38 1
    33   16   17 1
    34   16   39 1
    35   16   40 1
    36   17   22 ar
    37   17   18 ar
    38   18   19 ar
    39   18   41 1
    40   19   20 ar
    41   19   42 1
    42   20   21 ar
    43   20   23 1
    44   21   22 ar
    45   21   43 1
    46   22   44 1
@<TRIPOS>MOLECULE
ZINC57650449
   52    55     0     0     0
SMALL
USER_CHARGES

@<TRIPOS>ATOM
      1 C1         -0.0268    1.5237   -0.1614 C.3       1 <0>        -0.1820
      2 C2         -0.0031   -0.0053   -0.1129 C.3       1 <0>         0.0971
      3 N1         -1.3723   -0.5112    0.0124 N.am      1 <0>        -0.6030
      4 C3         -2.0944   -0.7821   -1.0929 C.2       1 <0>         0.4973
      5 O1         -3.1891   -1.2943   -0.9916 O.2       1 <0>        -0.5049
      6 C4         -1.5415   -0.4488   -2.4546 C.3       1 <0>         0.1136
      7 N2         -2.5093   -0.8379   -3.4832 N.pl3     1 <0>        -0.3590
      8 C5         -2.5797   -2.0396   -4.0932 C.2       1 <0>         0.0945
      9 C6         -3.6053   -1.9952   -4.9749 C.2       1 <0>        -0.2697
     10 C7         -4.1813   -0.7227   -4.9012 C.2       1 <0>         0.0782
     11 N3         -3.5290   -0.0302   -4.0030 N.2       1 <0>        -0.2890
     12 C8         -5.3550   -0.2359   -5.7114 C.3       1 <0>        -0.0726
     13 C9         -1.6775   -3.2195   -3.8384 C.3       1 <0>        -0.0931
     14 C10        -1.9566   -0.7224    1.3391 C.3       1 <0>         0.1809
     15 C11        -1.0511   -1.6484    2.1537 C.3       1 <0>        -0.1161
     16 C12        -1.6614   -1.8690    3.5392 C.3       1 <0>        -0.0819
     17 C13        -3.0438   -2.5079    3.3918 C.3       1 <0>        -0.1097
     18 C14        -3.9493   -1.5819    2.5773 C.3       1 <0>        -0.0971
     19 C15        -3.3390   -1.3613    1.1917 C.3       1 <0>        -0.0866
     20 C16        -4.0827   -0.2377    3.2958 C.3       1 <0>        -0.1100
     21 C17        -2.7003    0.4012    3.4432 C.3       1 <0>        -0.0831
     22 C18        -1.7947   -0.5248    4.2577 C.3       1 <0>        -0.1097
     23 C19        -2.0900    0.6218    2.0576 C.3       1 <0>        -0.1179
     24 H1          0.9919    1.9001   -0.2546 H         1 <0>         0.0709
     25 H2         -0.6149    1.8510   -1.0188 H         1 <0>         0.0577
     26 H3         -0.4742    1.9094    0.7547 H         1 <0>         0.0689
     27 H4          0.4443   -0.3910   -1.0289 H         1 <0>         0.0778
     28 H5          0.5850   -0.3326    0.7445 H         1 <0>         0.0878
     29 H6         -1.3546    0.6231   -2.5184 H         1 <0>         0.1223
     30 H7         -0.6084   -0.9902   -2.6103 H         1 <0>         0.1173
     31 H8         -3.9225   -2.7998   -5.6216 H         1 <0>         0.1468
     32 H9         -6.2801   -0.4515   -5.1767 H         1 <0>         0.0767
     33 H10        -5.2678    0.8393   -5.8676 H         1 <0>         0.0715
     34 H11        -5.3662   -0.7434   -6.6760 H         1 <0>         0.0776
     35 H12        -2.1018   -3.8370   -3.0467 H         1 <0>         0.0811
     36 H13        -1.5855   -3.8100   -4.7500 H         1 <0>         0.0875
     37 H14        -0.6927   -2.8649   -3.5343 H         1 <0>         0.0658
     38 H15        -0.9561   -2.6061    1.6418 H         1 <0>         0.0656
     39 H16        -0.0663   -1.1933    2.2587 H         1 <0>         0.0654
     40 H17        -1.0162   -2.5287    4.1195 H         1 <0>         0.0735
     41 H18        -2.9487   -3.4655    2.8800 H         1 <0>         0.0613
     42 H19        -3.4785   -2.6651    4.3789 H         1 <0>         0.0629
     43 H20        -4.9341   -2.0370    2.4723 H         1 <0>         0.0719
     44 H21        -3.9842   -0.7016    0.6114 H         1 <0>         0.0807
     45 H22        -3.2440   -2.3189    0.6799 H         1 <0>         0.0748
     46 H23        -4.7278    0.4220    2.7155 H         1 <0>         0.0614
     47 H24        -4.5174   -0.3949    4.2829 H         1 <0>         0.0628
     48 H25        -2.7953    1.3588    3.9550 H         1 <0>         0.0730
     49 H26        -2.2295   -0.6820    5.2448 H         1 <0>         0.0654
     50 H27        -0.8099   -0.0697    4.3627 H         1 <0>         0.0622
     51 H28        -1.1052    1.0769    2.1626 H         1 <0>         0.0686
     52 H29        -2.7351    1.2815    1.4773 H         1 <0>         0.0646
@<TRIPOS>BOND
     1    1    2 1
     2    1   24 1
     3    1   25 1
     4    1   26 1
     5    2    3 1
     6    2   27 1
     7    2   28 1
     8    3    4 am
     9    3   14 1
    10    4    5 2
    11    4    6 1
    12    6    7 1
    13    6   29 1
    14    6   30 1
    15    7   11 1
    16    7    8 1
    17    8    9 2
    18    8   13 1
    19    9   10 1
    20    9   31 1
    21   10   11 2
    22   10   12 1
    23   12   32 1
    24   12   33 1
    25   12   34 1
    26   13   35 1
    27   13   36 1
    28   13   37 1
    29   14   19 1
    30   14   23 1
    31   14   15 1
    32   15   16 1
    33   15   38 1
    34   15   39 1
    35   16   22 1
    36   16   17 1
    37   16   40 1
    38   17   18 1
    39   17   41 1
    40   17   42 1
    41   18   19 1
    42   18   20 1
    43   18   43 1
    44   19   44 1
    45   19   45 1
    46   20   21 1
    47   20   46 1
    48   20   47 1
    49   21   22 1
    50   21   23 1
    51   21   48 1
    52   22   49 1
    53   22   50 1
    54   23   51 1
    55   23   52 1
@<TRIPOS>MOLECULE
ZINC67371921
   36    37     0     0     0
SMALL
USER_CHARGES

@<TRIPOS>ATOM
      1 C1         -0.2326    1.4369   -0.8188 C.3       1 <0>        -0.1466
      2 C2         -0.0695    0.0562   -0.1802 C.3       1 <0>        -0.1003
      3 C3          0.6096    0.2018    1.1831 C.3       1 <0>        -0.1656
      4 C4         -1.4456   -0.5874    0.0017 C.3       1 <0>         0.2136
      5 H1         -1.9895   -0.5550   -0.9424 H         1 <0>         0.0894
      6 C5         -2.2182    0.1674    1.0526 C.ar      1 <0>        -0.1245
      7 C6         -3.1324    1.1437    0.6862 C.ar      1 <0>        -0.0564
      8 C7         -3.8202    1.8124    1.6869 C.ar      1 <0>        -0.1703
      9 C8         -3.5738    1.4862    3.0073 C.ar      1 <0>         0.0944
     10 N1         -2.6967    0.5522    3.3189 N.ar      1 <0>        -0.4853
     11 C9         -2.0288   -0.1085    2.3933 C.ar      1 <0>         0.1141
     12 N2         -1.2813   -1.9808    0.4230 N.pl3     1 <0>        -0.5773
     13 C10         0.0612   -2.5316    0.6247 C.3       1 <0>         0.0877
     14 C11        -2.3946   -2.7771    0.6307 C.ar      1 <0>         0.5738
     15 N3         -3.6010   -2.2645    0.4385 N.ar      1 <0>        -0.5506
     16 C12        -4.6856   -2.9977    0.6279 C.ar      1 <0>         0.2281
     17 C13        -4.5477   -4.3171    1.0322 C.ar      1 <0>        -0.2688
     18 C14        -3.2701   -4.8213    1.2240 C.ar      1 <0>         0.2286
     19 N4         -2.2278   -4.0350    1.0116 N.ar      1 <0>        -0.5574
     20 Br1        -6.0684   -5.4046    1.3164 Br        1 <0>        -0.0240
     21 H2          0.7478    1.8954   -0.9483 H         1 <0>         0.0647
     22 H3         -0.7164    1.3332   -1.7900 H         1 <0>         0.0594
     23 H4         -0.8453    2.0659   -0.1730 H         1 <0>         0.0597
     24 H5          0.5432   -0.5728   -0.8260 H         1 <0>         0.0882
     25 H6          0.0643    0.9288    1.7848 H         1 <0>         0.0592
     26 H7          0.6126   -0.7620    1.6923 H         1 <0>         0.0676
     27 H8          1.6356    0.5421    1.0434 H         1 <0>         0.0619
     28 H9         -3.3041    1.3778   -0.3541 H         1 <0>         0.1324
     29 H10        -4.5393    2.5788    1.4380 H         1 <0>         0.1348
     30 H11        -4.1055    2.0025    3.7929 H         1 <0>         0.1535
     31 H12        -1.3222   -0.8707    2.6867 H         1 <0>         0.1427
     32 H13         0.3342   -2.4474    1.6766 H         1 <0>         0.0596
     33 H14         0.0715   -3.5808    0.3294 H         1 <0>         0.0800
     34 H15         0.7766   -1.9764    0.0181 H         1 <0>         0.0848
     35 H16        -5.6664   -2.5741    0.4699 H         1 <0>         0.1731
     36 H17        -3.1278   -5.8446    1.5386 H         1 <0>         0.1758
@<TRIPOS>BOND
     1    1    2 1
     2    1   21 1
     3    1   22 1
     4    1   23 1
     5    2    3 1
     6    2    4 1
     7    2   24 1
     8    3   25 1
     9    3   26 1
    10    3   27 1
    11    4    5 1
    12    4    6 1
    13    4   12 1
    14    6   11 ar
    15    6    7 ar
    16    7    8 ar
    17    7   28 1
    18    8    9 ar
    19    8   29 1
    20    9   10 ar
    21    9   30 1
    22   10   11 ar
    23   11   31 1
    24   12   13 1
    25   12   14 1
    26   13   32 1
    27   13   33 1
    28   13   34 1
    29   14   19 ar
    30   14   15 ar
    31   15   16 ar
    32   16   17 ar
    33   16   35 1
    34   17   18 ar
    35   17   20 1
    36   18   19 ar
    37   18   36 1
@<TRIPOS>MOLECULE
ZINC05669802
   24    26     0     0     0
SMALL
USER_CHARGES
5-benzothiazol-2-ylsulfanylfuran-2-carbaldehyde
@<TRIPOS>ATOM
      1 C1         -1.2194    1.7603    0.0174 C.ar      1 <0>        -0.1115
      2 C2         -0.0126    1.0758    0.0080 C.ar      1 <0>        -0.0844
      3 C3          1.1714    1.7905    0.0005 C.ar      1 <0>        -0.0696
      4 C4          1.1347    3.1624    0.0083 C.ar      1 <0>        -0.1472
      5 C5         -0.0752    3.8932    0.0238 C.ar      1 <0>         0.0736
      6 C6         -1.2658    3.1298    0.0310 C.ar      1 <0>        -0.0528
      7 N1          0.0530    5.2375    0.0294 N.2       1 <0>        -0.4663
      8 C7          1.2232    5.8347    0.0211 C.2       1 <0>         0.0607
      9 S1          2.3562    4.4526    0.0030 S.3       1 <0>         0.0639
     10 S2          1.5838    7.5594    0.0269 S.3       1 <0>         0.3043
     11 C8          3.3448    7.5038    0.0091 C.2       1 <0>        -0.0461
     12 C9          4.1827    8.5969    0.0013 C.2       1 <0>        -0.1693
     13 C10         5.4887    8.1119   -0.0093 C.2       1 <0>        -0.0868
     14 C11         5.4018    6.7287   -0.0162 C.2       1 <0>        -0.1214
     15 O1          4.0921    6.3899   -0.0048 O.3       1 <0>        -0.1347
     16 C12         6.4845    5.8348   -0.0319 C.2       1 <0>         0.4163
     17 O2          7.6235    6.2597   -0.0407 O.2       1 <0>        -0.4413
     18 H1         -2.1433    1.2009    0.0183 H         1 <0>         0.1388
     19 H2          0.0021   -0.0041    0.0020 H         1 <0>         0.1428
     20 H3          2.1188    1.2723   -0.0117 H         1 <0>         0.1369
     21 H4         -2.2220    3.6317    0.0429 H         1 <0>         0.1366
     22 H5          3.8837    9.6347    0.0051 H         1 <0>         0.1715
     23 H6          6.3943    8.7004   -0.0152 H         1 <0>         0.1726
     24 H7          6.3054    4.7697   -0.0362 H         1 <0>         0.1135
@<TRIPOS>BOND
     1    1    6 ar
     2    1    2 ar
     3    1   18 1
     4    2    3 ar
     5    2   19 1
     6    3    4 ar
     7    3   20 1
     8    4    9 1
     9    4    5 ar
    10    5    6 ar
    11    5    7 1
    12    6   21 1
    13    7    8 2
    14    8    9 1
    15    8   10 1
    16   10   11 1
    17   11   15 1
    18   11   12 2
    19   12   13 1
    20   12   22 1
    21   13   14 2
    22   13   23 1
    23   14   15 1
    24   14   16 1
    25   16   17 2
    26   16   24 1
@<TRIPOS>MOLECULE
ZINC36697079
   41    42     0     0     0
SMALL
USER_CHARGES

@<TRIPOS>ATOM
      1 C1         -0.0187    1.5258    0.0104 C.3       1 <0>        -0.1476
      2 C2          0.0021   -0.0041    0.0020 C.3       1 <0>        -0.0910
      3 H1         -1.0205   -0.3814    0.0098 H         1 <0>         0.0717
      4 C3          0.7182   -0.4975   -1.2568 C.3       1 <0>        -0.1143
      5 C4          0.7390   -2.0273   -1.2652 C.3       1 <0>        -0.1167
      6 C5          1.4790   -2.5342   -0.0257 C.3       1 <0>        -0.0775
      7 H2          2.5015   -2.1569   -0.0334 H         1 <0>         0.0897
      8 C6          0.7628   -2.0407    1.2331 C.3       1 <0>         0.0930
      9 H3          1.2900   -2.4018    2.1162 H         1 <0>         0.0983
     10 C7          0.7421   -0.5109    1.2415 C.3       1 <0>        -0.1298
     11 O1         -0.5778   -2.5354    1.2433 O.3       1 <0>        -0.2834
     12 C8         -1.1433   -2.7547    2.4547 C.ar      1 <0>         0.3730
     13 C9         -2.4558   -3.2458    2.5332 C.ar      1 <0>        -0.1059
     14 C10        -3.0194   -3.4647    3.7953 C.ar      1 <0>         0.0091
     15 C11        -2.2537   -3.1860    4.9142 C.ar      1 <0>        -0.2144
     16 C12        -0.9674   -2.7043    4.7552 C.ar      1 <0>         0.1733
     17 N1         -0.4538   -2.5102    3.5554 N.ar      1 <0>        -0.5369
     18 C13        -3.2049   -3.5173    1.3433 C.1       1 <0>         0.2610
     19 N2         -3.7991   -3.7327    0.3994 N.1       1 <0>        -0.4055
     20 C14         1.4997   -4.0640   -0.0341 C.3       1 <0>        -0.0933
     21 C15         2.2158   -4.5574   -1.2929 C.3       1 <0>        -0.1491
     22 C16         2.2397   -4.5708    1.2054 C.3       1 <0>        -0.1511
     23 H4          1.0039    1.9031    0.0027 H         1 <0>         0.0546
     24 H5         -0.5459    1.8868   -0.8726 H         1 <0>         0.0548
     25 H6         -0.5289    1.8773    0.9072 H         1 <0>         0.0528
     26 H7          0.1910   -0.1364   -2.1398 H         1 <0>         0.0630
     27 H8          1.7408   -0.1202   -1.2645 H         1 <0>         0.0621
     28 H9         -0.2836   -2.4046   -1.2575 H         1 <0>         0.0678
     29 H10         1.2492   -2.3788   -2.1620 H         1 <0>         0.0681
     30 H11         1.7647   -0.1336    1.2338 H         1 <0>         0.0788
     31 H12         0.2319   -0.1594    2.1383 H         1 <0>         0.0694
     32 H13        -4.0267   -3.8415    3.8938 H         1 <0>         0.1513
     33 H14        -2.6578   -3.3432    5.9033 H         1 <0>         0.1498
     34 H15        -0.3708   -2.4871    5.6289 H         1 <0>         0.1690
     35 H16         0.4771   -4.4413   -0.0263 H         1 <0>         0.0730
     36 H17         2.2306   -5.6473   -1.2989 H         1 <0>         0.0543
     37 H18         1.6887   -4.1963   -2.1760 H         1 <0>         0.0582
     38 H19         3.2384   -4.1801   -1.3006 H         1 <0>         0.0548
     39 H20         1.7295   -4.2193    2.1022 H         1 <0>         0.0547
     40 H21         2.2545   -5.6607    1.1994 H         1 <0>         0.0550
     41 H22         3.2623   -4.1935    1.1977 H         1 <0>         0.0559
@<TRIPOS>BOND
     1    1    2 1
     2    1   23 1
     3    1   24 1
     4    1   25 1
     5    2    3 1
     6    2   10 1
     7    2    4 1
     8    4    5 1
     9    4   26 1
    10    4   27 1
    11    5    6 1
    12    5   28 1
    13    5   29 1
    14    6    7 1
    15    6    8 1
    16    6   20 1
    17    8    9 1
    18    8   10 1
    19    8   11 1
    20   10   30 1
    21   10   31 1
    22   11   12 1
    23   12   17 ar
    24   12   13 ar
    25   13   14 ar
    26   13   18 1
    27   14   15 ar
    28   14   32 1
    29   15   16 ar
    30   15   33 1
    31   16   17 ar
    32   16   34 1
    33   18   19 3
    34   20   21 1
    35   20   22 1
    36   20   35 1
    37   21   36 1
    38   21   37 1
    39   21   38 1
    40   22   39 1
    41   22   40 1
    42   22   41 1
@<TRIPOS>MOLECULE
ZINC40887051
   33    34     0     0     0
SMALL
USER_CHARGES

@<TRIPOS>ATOM
      1 C1         -0.0184    1.5028    0.0103 C.3       1 <0>        -0.1162
      2 C2          0.0021   -0.0041    0.0020 C.ar      1 <0>        -0.0825
      3 C3          0.0057   -0.6883   -1.1997 C.ar      1 <0>        -0.1009
      4 C4          0.0240   -2.0707   -1.2108 C.ar      1 <0>        -0.1122
      5 C5          0.0387   -2.7721   -0.0206 C.ar      1 <0>        -0.0760
      6 C6          0.0355   -2.0881    1.1863 C.ar      1 <0>         0.0781
      7 C7          0.0229   -0.7004    1.1946 C.ar      1 <0>        -0.0721
      8 C8          0.0256    0.0460    2.5038 C.3       1 <0>        -0.1128
      9 O1          0.0499   -2.7756    2.3584 O.3       1 <0>        -0.2323
     10 C9          1.2546   -3.0825    2.9022 C.ar      1 <0>         0.2644
     11 C10         1.3214   -3.7910    4.0995 C.ar      1 <0>        -0.1303
     12 C11         2.5760   -4.0797    4.6138 C.ar      1 <0>        -0.0674
     13 C12         3.6870   -3.6454    3.9047 C.ar      1 <0>         0.0164
     14 N1          3.5302   -2.9797    2.7778 N.ar      1 <0>        -0.1829
     15 N2          2.3713   -2.7145    2.2943 N.ar      1 <0>        -0.2769
     16 C13         5.0723   -3.9342    4.4231 C.3       1 <0>         0.0231
     17 Cl1         5.6438   -5.5121    3.7639 Cl        1 <0>        -0.1569
     18 C14         0.0576   -4.2789   -0.0334 C.3       1 <0>        -0.1170
     19 H1          1.0042    1.8801    0.0026 H         1 <0>         0.0735
     20 H2         -0.5455    1.8639   -0.8728 H         1 <0>         0.0699
     21 H3         -0.5286    1.8543    0.9071 H         1 <0>         0.0696
     22 H4         -0.0061   -0.1419   -2.1312 H         1 <0>         0.1292
     23 H5          0.0264   -2.6027   -2.1507 H         1 <0>         0.1309
     24 H6         -1.0013    0.2123    2.8294 H         1 <0>         0.0768
     25 H7          0.5545   -0.5403    3.2552 H         1 <0>         0.0581
     26 H8          0.5255    1.0059    2.3737 H         1 <0>         0.0743
     27 H9          0.4239   -4.1053    4.6114 H         1 <0>         0.1626
     28 H10         2.6855   -4.6260    5.5390 H         1 <0>         0.1625
     29 H11         5.7508   -3.1415    4.1079 H         1 <0>         0.1175
     30 H12         5.0502   -3.9819    5.5118 H         1 <0>         0.1167
     31 H13         1.0897   -4.6293   -0.0416 H         1 <0>         0.0708
     32 H14        -0.4472   -4.6562    0.8559 H         1 <0>         0.0683
     33 H15        -0.4561   -4.6412   -0.9239 H         1 <0>         0.0738
@<TRIPOS>BOND
     1    1    2 1
     2    1   19 1
     3    1   20 1
     4    1   21 1
     5    2    7 ar
     6    2    3 ar
     7    3    4 ar
     8    3   22 1
     9    4    5 ar
    10    4   23 1
    11    5    6 ar
    12    5   18 1
    13    6    7 ar
    14    6    9 1
    15    7    8 1
    16    8   24 1
    17    8   25 1
    18    8   26 1
    19    9   10 1
    20   10   15 ar
    21   10   11 ar
    22   11   12 ar
    23   11   27 1
    24   12   13 ar
    25   12   28 1
    26   13   14 ar
    27   13   16 1
    28   14   15 ar
    29   16   17 1
    30   16   29 1
    31   16   30 1
    32   18   31 1
    33   18   32 1
    34   18   33 1
@<TRIPOS>MOLECULE
ZINC52813992
   33    34     0     0     0
SMALL
USER_CHARGES

@<TRIPOS>ATOM
      1 C1         -0.0184    1.5028    0.0103 C.3       1 <0>        -0.1162
      2 C2          0.0021   -0.0041    0.0020 C.ar      1 <0>        -0.0824
      3 C3          0.0058   -0.6883   -1.1997 C.ar      1 <0>        -0.1005
      4 C4          0.0250   -2.0706   -1.2108 C.ar      1 <0>        -0.1124
      5 C5          0.0405   -2.7720   -0.0205 C.ar      1 <0>        -0.0755
      6 C6          0.0368   -2.0880    1.1863 C.ar      1 <0>         0.0788
      7 C7          0.0229   -0.7004    1.1946 C.ar      1 <0>        -0.0709
      8 C8          0.0246    0.0460    2.5038 C.3       1 <0>        -0.1131
      9 O1          0.0516   -2.7756    2.3585 O.3       1 <0>        -0.2291
     10 C9          1.2550   -3.0812    2.9016 C.ar      1 <0>         0.3796
     11 C10         1.3311   -3.7902    4.0999 C.ar      1 <0>        -0.2431
     12 C11         2.5809   -4.0781    4.6143 C.ar      1 <0>         0.2186
     13 N1          3.6589   -3.6745    3.9578 N.ar      1 <0>        -0.5263
     14 C12         3.5531   -3.0054    2.8261 C.ar      1 <0>         0.4052
     15 N2          2.3797   -2.7148    2.2980 N.ar      1 <0>        -0.5528
     16 Cl1         4.9970   -2.4993    2.0060 Cl        1 <0>         0.0332
     17 C13         2.7163   -4.8414    5.9067 C.3       1 <0>        -0.1073
     18 C14         0.0609   -4.2788   -0.0333 C.3       1 <0>        -0.1167
     19 H1          1.0042    1.8801    0.0026 H         1 <0>         0.0733
     20 H2         -0.5455    1.8639   -0.8728 H         1 <0>         0.0700
     21 H3         -0.5286    1.8543    0.9071 H         1 <0>         0.0698
     22 H4         -0.0067   -0.1419   -2.1312 H         1 <0>         0.1292
     23 H5          0.0275   -2.6027   -2.1506 H         1 <0>         0.1308
     24 H6         -1.0025    0.2116    2.8290 H         1 <0>         0.0775
     25 H7          0.5536   -0.5399    3.2554 H         1 <0>         0.0581
     26 H8          0.5239    1.0062    2.3740 H         1 <0>         0.0744
     27 H9          0.4352   -4.1062    4.6135 H         1 <0>         0.1631
     28 H10         2.7607   -5.9097    5.6947 H         1 <0>         0.0936
     29 H11         3.6294   -4.5339    6.4163 H         1 <0>         0.0902
     30 H12         1.8567   -4.6328    6.5436 H         1 <0>         0.0883
     31 H13         1.0934   -4.6281   -0.0416 H         1 <0>         0.0699
     32 H14        -0.4434   -4.6566    0.8561 H         1 <0>         0.0686
     33 H15        -0.4525   -4.6416   -0.9238 H         1 <0>         0.0741
@<TRIPOS>BOND
     1    1    2 1
     2    1   19 1
     3    1   20 1
     4    1   21 1
     5    2    7 ar
     6    2    3 ar
     7    3    4 ar
     8    3   22 1
     9    4    5 ar
    10    4   23 1
    11    5    6 ar
    12    5   18 1
    13    6    7 ar
    14    6    9 1
    15    7    8 1
    16    8   24 1
    17    8   25 1
    18    8   26 1
    19    9   10 1
    20   10   15 ar
    21   10   11 ar
    22   11   12 ar
    23   11   27 1
    24   12   13 ar
    25   12   17 1
    26   13   14 ar
    27   14   15 ar
    28   14   16 1
    29   17   28 1
    30   17   29 1
    31   17   30 1
    32   18   31 1
    33   18   32 1
    34   18   33 1
@<TRIPOS>MOLECULE
ZINC62011207
   31    32     0     0     0
SMALL
USER_CHARGES

@<TRIPOS>ATOM
      1 C1          0.5938    1.0766   -1.0879 C.3       1 <0>        -0.1585
      2 C2          0.0576   -0.0477   -0.1995 C.3       1 <0>         0.1902
      3 H1          0.3775   -1.0102   -0.5987 H         1 <0>         0.1042
      4 C3          0.5927    0.1189    1.1994 C.ar      1 <0>        -0.1015
      5 C4         -0.1886    0.7153    2.1715 C.ar      1 <0>        -0.1025
      6 C5          0.3017    0.8683    3.4547 C.ar      1 <0>        -0.1078
      7 C6          1.5745    0.4245    3.7662 C.ar      1 <0>        -0.0329
      8 C7          2.3559   -0.1723    2.7929 C.ar      1 <0>        -0.1061
      9 C8          1.8624   -0.3299    1.5114 C.ar      1 <0>        -0.0973
     10 Cl1         2.1911    0.6169    5.3775 Cl        1 <0>        -0.0666
     11 N1         -1.4062    0.0074   -0.1722 N.pl3     1 <0>        -0.5942
     12 C9         -2.0876    1.2918    0.0069 C.3       1 <0>         0.0887
     13 C10        -2.1483   -1.1589   -0.3164 C.ar      1 <0>         0.3784
     14 C11        -1.5169   -2.3995   -0.2634 C.ar      1 <0>        -0.0029
     15 N2         -2.2245   -3.5046   -0.4001 N.ar      1 <0>        -0.3839
     16 C12        -3.5318   -3.4362   -0.5873 C.ar      1 <0>         0.0025
     17 C13        -4.1631   -2.2064   -0.6406 C.ar      1 <0>         0.1786
     18 N3         -3.4608   -1.0938   -0.4992 N.ar      1 <0>        -0.4962
     19 Cl2        -5.8795   -2.1229   -0.8871 Cl        1 <0>        -0.0118
     20 H2          1.6828    1.0356   -1.1082 H         1 <0>         0.0784
     21 H3          0.2067    0.9562   -2.0997 H         1 <0>         0.0695
     22 H4          0.2738    2.0391   -0.6887 H         1 <0>         0.0675
     23 H5         -1.1820    1.0620    1.9282 H         1 <0>         0.1380
     24 H6         -0.3086    1.3346    4.2140 H         1 <0>         0.1340
     25 H7          3.3497   -0.5187    3.0353 H         1 <0>         0.1366
     26 H8          2.4705   -0.8000    0.7527 H         1 <0>         0.1356
     27 H9         -2.3788    1.6875   -0.9661 H         1 <0>         0.0590
     28 H10        -2.9762    1.1490    0.6218 H         1 <0>         0.0743
     29 H11        -1.4148    1.9946    0.4984 H         1 <0>         0.0783
     30 H12        -0.4492   -2.4566   -0.1109 H         1 <0>         0.1715
     31 H13        -4.1080   -4.3428   -0.6992 H         1 <0>         0.1768
@<TRIPOS>BOND
     1    1    2 1
     2    1   20 1
     3    1   21 1
     4    1   22 1
     5    2    3 1
     6    2    4 1
     7    2   11 1
     8    4    9 ar
     9    4    5 ar
    10    5    6 ar
    11    5   23 1
    12    6    7 ar
    13    6   24 1
    14    7    8 ar
    15    7   10 1
    16    8    9 ar
    17    8   25 1
    18    9   26 1
    19   11   12 1
    20   11   13 1
    21   12   27 1
    22   12   28 1
    23   12   29 1
    24   13   18 ar
    25   13   14 ar
    26   14   15 ar
    27   14   30 1
    28   15   16 ar
    29   16   17 ar
    30   16   31 1
    31   17   18 ar
    32   17   19 1
@<TRIPOS>MOLECULE
ZINC28286115
   33    35     0     0     0
SMALL
USER_CHARGES
4-(1-naphthyl)tetrahydropyran-4-carbonitrile
@<TRIPOS>ATOM
      1 C1          4.7843    0.0610   -0.0644 C.ar      1 <0>        -0.1154
      2 C2          4.7654    1.4547   -0.0572 C.ar      1 <0>        -0.1060
      3 C3          3.5895    2.1394   -0.0353 C.ar      1 <0>        -0.1201
      4 C4          2.3741    1.4337   -0.0197 C.ar      1 <0>        -0.0375
      5 C5          2.3934    0.0164   -0.0275 C.ar      1 <0>        -0.0516
      6 C6          3.6275   -0.6557   -0.0502 C.ar      1 <0>        -0.1014
      7 C7          1.1784   -0.6890   -0.0128 C.ar      1 <0>        -0.0955
      8 C8          0.0022   -0.0041    0.0086 C.ar      1 <0>        -0.1167
      9 C9         -0.0167    1.3891    0.0162 C.ar      1 <0>        -0.0979
     10 C10         1.1405    2.1058    0.0025 C.ar      1 <0>        -0.0754
     11 C11         1.0986    3.6122    0.0105 C.3       1 <0>         0.0842
     12 C12         1.6963    4.1344    1.3206 C.3       1 <0>        -0.1492
     13 C13         1.5779    5.6604    1.3540 C.3       1 <0>         0.0542
     14 O1          0.2053    6.0334    1.2165 O.3       1 <0>        -0.3728
     15 C14        -0.3935    5.6129   -0.0111 C.3       1 <0>         0.0540
     16 C15        -0.3542    4.0850   -0.0993 C.3       1 <0>        -0.1491
     17 C16         1.8731    4.1324   -1.1280 C.1       1 <0>         0.2098
     18 N1          2.4709    4.5339   -2.0067 N.1       1 <0>        -0.4141
     19 H1          5.7313   -0.4579   -0.0819 H         1 <0>         0.1259
     20 H2          5.6979    1.9993   -0.0694 H         1 <0>         0.1243
     21 H3          3.5903    3.2194   -0.0296 H         1 <0>         0.1242
     22 H4          3.6577   -1.7352   -0.0561 H         1 <0>         0.1302
     23 H5          1.1776   -1.7690   -0.0187 H         1 <0>         0.1305
     24 H6         -0.9304   -0.5488    0.0196 H         1 <0>         0.1292
     25 H7         -0.9637    1.9081    0.0286 H         1 <0>         0.1345
     26 H8          1.1486    3.7026    2.1713 H         1 <0>         0.1010
     27 H9          2.7557    3.8446    1.3815 H         1 <0>         0.0906
     28 H10         1.9668    6.0374    2.3114 H         1 <0>         0.1078
     29 H11         2.1603    6.0916    0.5264 H         1 <0>         0.0506
     30 H12        -1.4381    5.9560   -0.0459 H         1 <0>         0.1081
     31 H13         0.1624    6.0439   -0.8568 H         1 <0>         0.0509
     32 H14        -0.7738    3.7596   -1.0626 H         1 <0>         0.0899
     33 H15        -0.9438    3.6522    0.7224 H         1 <0>         0.1030
@<TRIPOS>BOND
     1    1    6 ar
     2    1    2 ar
     3    1   19 1
     4    2    3 ar
     5    2   20 1
     6    3    4 ar
     7    3   21 1
     8    4   10 ar
     9    4    5 ar
    10    5    6 ar
    11    5    7 ar
    12    6   22 1
    13    7    8 ar
    14    7   23 1
    15    8    9 ar
    16    8   24 1
    17    9   10 ar
    18    9   25 1
    19   10   11 1
    20   11   16 1
    21   11   12 1
    22   11   17 1
    23   12   13 1
    24   12   26 1
    25   12   27 1
    26   13   14 1
    27   13   28 1
    28   13   29 1
    29   14   15 1
    30   15   16 1
    31   15   30 1
    32   15   31 1
    33   16   32 1
    34   16   33 1
    35   17   18 3
@<TRIPOS>MOLECULE
ZINC04098293
   39    40     0     0     0
SMALL
USER_CHARGES

@<TRIPOS>ATOM
      1 C1          0.0788    1.5244    0.0052 C.3       1 <0>        -0.1558
      2 C2          0.0800   -0.0039   -0.0019 C.3       1 <0>        -0.0316
      3 C3         -1.3573   -0.5290   -0.0151 C.3       1 <0>        -0.1132
      4 C4         -2.0328   -0.2843    1.3318 C.3       1 <0>        -0.1178
      5 C5         -1.2766   -1.0434    2.4180 C.3       1 <0>        -0.1092
      6 C6          0.1697   -0.5551    2.5072 C.3       1 <0>        -0.0502
      7 C7          0.8644   -0.6014    1.1608 C.3       1 <0>        -0.0572
      8 H1          1.0249   -1.6802    0.9147 H         1 <0>         0.0688
      9 C8          2.2537    0.0366    1.2271 C.3       1 <0>        -0.1014
     10 C9          2.9082   -0.0456   -0.1253 C.2       1 <0>        -0.0538
     11 C10         2.2378   -0.2775   -1.2376 C.2       1 <0>        -0.2149
     12 C11         0.7550   -0.4840   -1.3035 C.3       1 <0>        -0.0996
     13 H2          0.5411   -1.5412   -1.4429 H         1 <0>         0.1009
     14 C12         0.2039    0.3009   -2.4655 C.2       1 <0>         0.3566
     15 O1         -0.3598   -0.2711   -3.3674 O.2       1 <0>        -0.4447
     16 C13         2.9930   -0.3370   -2.4908 C.2       1 <0>         0.3584
     17 O2          2.4163   -0.5479   -3.5372 O.2       1 <0>        -0.4505
     18 C14         0.1990    0.8341    3.1417 C.3       1 <0>        -0.1484
     19 C15         0.9058   -1.5169    3.4672 C.3       1 <0>        -0.1496
     20 H3          1.0965    1.8892   -0.1333 H         1 <0>         0.0621
     21 H4         -0.5520    1.8911   -0.8046 H         1 <0>         0.0572
     22 H5         -0.3091    1.8830    0.9587 H         1 <0>         0.0714
     23 H6         -1.9293   -0.0200   -0.7924 H         1 <0>         0.0620
     24 H7         -1.3483   -1.6001   -0.2231 H         1 <0>         0.0653
     25 H8         -2.0677    0.7781    1.5552 H         1 <0>         0.0676
     26 H9         -3.0621   -0.6603    1.2836 H         1 <0>         0.0607
     27 H10        -1.7668   -0.8888    3.3821 H         1 <0>         0.0640
     28 H11        -1.2803   -2.1118    2.1886 H         1 <0>         0.0615
     29 H12         2.2073    1.0768    1.5278 H         1 <0>         0.0959
     30 H13         2.8790   -0.5114    1.9354 H         1 <0>         0.0863
     31 H14         3.9758    0.0918   -0.1821 H         1 <0>         0.1251
     32 H15         0.3129    1.3750   -2.4918 H         1 <0>         0.0891
     33 H16         4.0634   -0.1932   -2.4836 H         1 <0>         0.1041
     34 H17        -0.1180    0.7650    4.1823 H         1 <0>         0.0559
     35 H18         1.2124    1.2329    3.0963 H         1 <0>         0.0581
     36 H19        -0.4764    1.4956    2.5993 H         1 <0>         0.0611
     37 H20         0.8631   -2.5307    3.0692 H         1 <0>         0.0534
     38 H21         1.9466   -1.2079    3.5636 H         1 <0>         0.0558
     39 H22         0.4268   -1.4904    4.4460 H         1 <0>         0.0565
@<TRIPOS>BOND
     1    1    2 1
     2    1   20 1
     3    1   21 1
     4    1   22 1
     5    2    7 1
     6    2   12 1
     7    2    3 1
     8    3    4 1
     9    3   23 1
    10    3   24 1
    11    4    5 1
    12    4   25 1
    13    4   26 1
    14    5    6 1
    15    5   27 1
    16    5   28 1
    17    6    7 1
    18    6   18 1
    19    6   19 1
    20    7    8 1
    21    7    9 1
    22    9   10 1
    23    9   29 1
    24    9   30 1
    25   10   11 2
    26   10   31 1
    27   11   12 1
    28   11   16 1
    29   12   13 1
    30   12   14 1
    31   14   15 2
    32   14   32 1
    33   16   17 2
    34   16   33 1
    35   18   34 1
    36   18   35 1
    37   18   36 1
    38   19   37 1
    39   19   38 1
    40   19   39 1
@<TRIPOS>MOLECULE
ZINC48524416
   41    43     0     0     0
SMALL
USER_CHARGES

@<TRIPOS>ATOM
      1 C1         -0.0186    1.5235    0.0104 C.3       1 <0>        -0.1409
      2 C2          0.0021   -0.0041    0.0020 C.3       1 <0>        -0.0291
      3 C3          0.7033   -0.4926   -1.2745 C.3       1 <0>        -0.0810
      4 C4          2.1630   -0.1572   -1.2007 C.2       1 <0>        -0.1495
      5 C5          2.8012   -0.0175   -0.0864 C.2       1 <0>        -0.1461
      6 C6          2.1941   -0.1943    1.2739 C.3       1 <0>        -0.0208
      7 C7          0.7266   -0.5849    1.2132 C.3       1 <0>        -0.0590
      8 H1          0.6818   -1.6943    1.1205 H         1 <0>         0.0758
      9 C8         -0.0046   -0.2191    2.5032 C.3       1 <0>        -0.1156
     10 C9         -1.4288   -0.7851    2.4591 C.3       1 <0>        -0.1159
     11 C10        -2.1742   -0.1883    1.2643 C.3       1 <0>        -0.1488
     12 C11        -1.4389   -0.5261   -0.0251 C.3       1 <0>         0.2666
     13 O1         -2.1303    0.0394   -1.1536 O.3       1 <0>        -0.3623
     14 C12        -3.2051   -0.8970   -1.4001 C.3       1 <0>         0.0128
     15 C13        -2.5690   -2.2608   -1.0526 C.3       1 <0>         0.0185
     16 O2         -1.4317   -1.9481   -0.2277 O.3       1 <0>        -0.3698
     17 C14         2.4244    1.0748    2.0939 C.3       1 <0>        -0.1437
     18 C15         2.9658   -1.3383    1.9667 C.3       1 <0>        -0.1414
     19 H2          1.0040    1.9008    0.0027 H         1 <0>         0.0675
     20 H3         -0.5458    1.8846   -0.8726 H         1 <0>         0.0631
     21 H4         -0.5288    1.8750    0.9072 H         1 <0>         0.0567
     22 H5          0.5846   -1.5704   -1.3625 H         1 <0>         0.0809
     23 H6          0.2618   -0.0006   -2.1387 H         1 <0>         0.0741
     24 H7          2.7032   -0.0254   -2.1246 H         1 <0>         0.1035
     25 H8          3.8495    0.2451   -0.1361 H         1 <0>         0.1016
     26 H9          0.5129   -0.6530    3.3601 H         1 <0>         0.0672
     27 H10        -0.0744    0.8586    2.6286 H         1 <0>         0.0677
     28 H11        -1.3821   -1.8692    2.3598 H         1 <0>         0.0692
     29 H12        -1.9470   -0.5249    3.3820 H         1 <0>         0.0669
     30 H13        -3.1821   -0.6150    1.2253 H         1 <0>         0.0647
     31 H14        -2.2613    0.8901    1.3834 H         1 <0>         0.0826
     32 H15        -4.0564   -0.6914   -0.7511 H         1 <0>         0.0730
     33 H16        -3.5089   -0.8702   -2.4474 H         1 <0>         0.1057
     34 H17        -3.2777   -2.8795   -0.5017 H         1 <0>         0.0804
     35 H18        -2.2490   -2.7718   -1.9607 H         1 <0>         0.0842
     36 H19         1.9573    1.9218    1.5915 H         1 <0>         0.0590
     37 H20         1.9852    0.9523    3.0840 H         1 <0>         0.0608
     38 H21         3.4950    1.2553    2.1911 H         1 <0>         0.0550
     39 H22         4.0191   -1.0698    2.0468 H         1 <0>         0.0556
     40 H23         2.5557   -1.5018    2.9634 H         1 <0>         0.0564
     41 H24         2.8672   -2.2511    1.3792 H         1 <0>         0.0544
@<TRIPOS>BOND
     1    1    2 1
     2    1   19 1
     3    1   20 1
     4    1   21 1
     5    2    7 1
     6    2   12 1
     7    2    3 1
     8    3    4 1
     9    3   22 1
    10    3   23 1
    11    4    5 2
    12    4   24 1
    13    5    6 1
    14    5   25 1
    15    6    7 1
    16    6   17 1
    17    6   18 1
    18    7    8 1
    19    7    9 1
    20    9   10 1
    21    9   26 1
    22    9   27 1
    23   10   11 1
    24   10   28 1
    25   10   29 1
    26   11   12 1
    27   11   30 1
    28   11   31 1
    29   12   16 1
    30   12   13 1
    31   13   14 1
    32   14   15 1
    33   14   32 1
    34   14   33 1
    35   15   16 1
    36   15   34 1
    37   15   35 1
    38   17   36 1
    39   17   37 1
    40   17   38 1
    41   18   39 1
    42   18   40 1
    43   18   41 1
@<TRIPOS>MOLECULE
ZINC61851249
   34    35     0     0     0
SMALL
USER_CHARGES

@<TRIPOS>ATOM
      1 C1         -0.0186    1.5257    0.0142 C.3       1 <0>        -0.1487
      2 C2          0.0020   -0.0039   -0.0133 C.3       1 <0>        -0.0650
      3 C3          0.7253   -0.4814   -1.2746 C.3       1 <0>        -0.1267
      4 C4          2.1513    0.0784   -1.2835 C.3       1 <0>         0.1127
      5 N1          2.8150   -0.2983   -0.0281 N.pl3     1 <0>        -0.6116
      6 C5          2.1598    0.0330    1.2445 C.3       1 <0>         0.1115
      7 C6          0.7337   -0.5263    1.2251 C.3       1 <0>        -0.1262
      8 C7          4.0411   -0.9570   -0.0441 C.ar      1 <0>         0.2652
      9 C8          4.5934   -1.3669   -1.2546 C.ar      1 <0>        -0.2022
     10 C9          5.8053   -2.0183   -1.2751 C.ar      1 <0>        -0.0042
     11 C10         6.4832   -2.2690   -0.0779 C.ar      1 <0>        -0.0909
     12 C11         5.9258   -1.8559    1.1372 C.ar      1 <0>         0.0608
     13 C12         4.7142   -1.1989    1.1489 C.ar      1 <0>        -0.1996
     14 Cl1         6.7620   -2.1645    2.6269 Cl        1 <0>        -0.0510
     15 C13         7.7443   -2.9471   -0.0955 C.1       1 <0>         0.2559
     16 N2          8.7448   -3.4850   -0.1094 N.1       1 <0>        -0.4148
     17 C14        -1.4336   -0.5330   -0.0182 C.3       1 <0>        -0.1429
     18 H1          1.0040    1.9029    0.0182 H         1 <0>         0.0589
     19 H2         -0.5398    1.8980   -0.8678 H         1 <0>         0.0569
     20 H3         -0.5349    1.8660    0.9119 H         1 <0>         0.0569
     21 H4          0.7621   -1.5707   -1.2826 H         1 <0>         0.0693
     22 H5          0.1904   -0.1285   -2.1564 H         1 <0>         0.0769
     23 H6          2.7019   -0.3377   -2.1272 H         1 <0>         0.0877
     24 H7          2.1168    1.1647   -1.3670 H         1 <0>         0.0723
     25 H8          2.7160   -0.4131    2.0689 H         1 <0>         0.0862
     26 H9          2.1260    1.1155    1.3672 H         1 <0>         0.0722
     27 H10         0.2048   -0.2055    2.1226 H         1 <0>         0.0771
     28 H11         0.7704   -1.6153    1.1936 H         1 <0>         0.0692
     29 H12         4.0696   -1.1736   -2.1791 H         1 <0>         0.1402
     30 H13         6.2323   -2.3361   -2.2148 H         1 <0>         0.1417
     31 H14         4.2849   -0.8755    2.0857 H         1 <0>         0.1438
     32 H15        -1.9551   -0.1606   -0.8999 H         1 <0>         0.0567
     33 H16        -1.4191   -1.6227   -0.0378 H         1 <0>         0.0551
     34 H17        -1.9493   -0.1926    0.8797 H         1 <0>         0.0567
@<TRIPOS>BOND
     1    1    2 1
     2    1   18 1
     3    1   19 1
     4    1   20 1
     5    2    7 1
     6    2    3 1
     7    2   17 1
     8    3    4 1
     9    3   21 1
    10    3   22 1
    11    4    5 1
    12    4   23 1
    13    4   24 1
    14    5    6 1
    15    5    8 1
    16    6    7 1
    17    6   25 1
    18    6   26 1
    19    7   27 1
    20    7   28 1
    21    8   13 ar
    22    8    9 ar
    23    9   10 ar
    24    9   29 1
    25   10   11 ar
    26   10   30 1
    27   11   12 ar
    28   11   15 1
    29   12   13 ar
    30   12   14 1
    31   13   31 1
    32   15   16 3
    33   17   32 1
    34   17   33 1
    35   17   34 1
@<TRIPOS>MOLECULE
ZINC63058538
   24    25     0     0     0
SMALL
USER_CHARGES

@<TRIPOS>ATOM
      1 C1         -0.0184    1.5028    0.0103 C.3       1 <0>        -0.1168
      2 C2          0.0021   -0.0041    0.0020 C.ar      1 <0>        -0.1189
      3 C3          0.0058   -0.6859   -1.1969 C.ar      1 <0>        -0.0603
      4 C4          0.0252   -2.0815   -1.2031 C.ar      1 <0>        -0.0293
      5 C5          0.0407   -2.7798    0.0058 C.ar      1 <0>        -0.0451
      6 C6          0.0369   -2.0882    1.1986 C.ar      1 <0>        -0.1495
      7 C7          0.0229   -0.7021    1.1990 C.ar      1 <0>         0.1198
      8 F1          0.0244   -0.0293    2.3705 F         1 <0>        -0.1299
      9 C8          0.0287   -2.8174   -2.4847 C.2       1 <0>         0.2421
     10 N1          0.0409   -4.1229   -2.6188 N.2       1 <0>        -0.4561
     11 C9          0.0402   -4.4197   -3.9274 C.2       1 <0>        -0.0309
     12 C10         0.0271   -3.2621   -4.6126 C.2       1 <0>        -0.0382
     13 O1          0.0141   -2.2620   -3.7089 O.3       1 <0>        -0.1905
     14 C11         0.0523   -5.8037   -4.5235 C.3       1 <0>         0.0469
     15 Cl1        -1.6426   -6.3724   -4.7571 Cl        1 <0>        -0.1635
     16 H1          1.0042    1.8801    0.0026 H         1 <0>         0.0785
     17 H2         -0.5455    1.8639   -0.8728 H         1 <0>         0.0760
     18 H3         -0.5286    1.8543    0.9071 H         1 <0>         0.0743
     19 H4         -0.0067   -0.1408   -2.1292 H         1 <0>         0.1422
     20 H5          0.0554   -3.8597    0.0066 H         1 <0>         0.1495
     21 H6          0.0486   -2.6274    2.1343 H         1 <0>         0.1478
     22 H7          0.0234   -3.1542   -5.6872 H         1 <0>         0.2237
     23 H8          0.5636   -5.7804   -5.4859 H         1 <0>         0.1147
     24 H9          0.5745   -6.4843   -3.8511 H         1 <0>         0.1137
@<TRIPOS>BOND
     1    1    2 1
     2    1   16 1
     3    1   17 1
     4    1   18 1
     5    2    7 ar
     6    2    3 ar
     7    3    4 ar
     8    3   19 1
     9    4    5 ar
    10    4    9 1
    11    5    6 ar
    12    5   20 1
    13    6    7 ar
    14    6   21 1
    15    7    8 1
    16    9   13 1
    17    9   10 2
    18   10   11 1
    19   11   12 2
    20   11   14 1
    21   12   13 1
    22   12   22 1
    23   14   15 1
    24   14   23 1
    25   14   24 1
@<TRIPOS>MOLECULE
ZINC12534417
   32    34     0     0     0
SMALL
USER_CHARGES
3-[[2-(trifluoromethyl)quinazolin-4-yl]amino]benzonitrile
@<TRIPOS>ATOM
      1 C1          0.0319    9.4676    0.3734 C.ar      1 <0>        -0.1102
      2 C2          1.2613   10.1139    0.4669 C.ar      1 <0>        -0.0710
      3 C3          2.4285    9.4099    0.4488 C.ar      1 <0>        -0.0936
      4 C4          2.3925    8.0135    0.3344 C.ar      1 <0>         0.1825
      5 C5          1.1406    7.3579    0.2394 C.ar      1 <0>        -0.1706
      6 C6         -0.0390    8.1101    0.2610 C.ar      1 <0>        -0.0780
      7 C7          1.1318    5.9465    0.1252 C.ar      1 <0>         0.4757
      8 N1          2.2964    5.3113    0.1182 N.ar      1 <0>        -0.5553
      9 C8          3.4422    5.9676    0.2045 C.ar      1 <0>         0.2918
     10 N2          3.5108    7.2734    0.3122 N.ar      1 <0>        -0.4920
     11 C9          4.7262    5.1790    0.1835 C.3       1 <0>         0.5456
     12 F1          5.7778    5.9884    0.6265 F         1 <0>        -0.1534
     13 F2          4.6055    4.0688    1.0261 F         1 <0>        -0.1582
     14 F3          4.9874    4.7479   -1.1215 F         1 <0>        -0.1629
     15 N3         -0.0555    5.2506    0.0295 N.pl3     1 <0>        -0.6315
     16 C10        -0.0411    3.8722   -0.2034 C.ar      1 <0>         0.1449
     17 C11        -1.0035    3.0580    0.3831 C.ar      1 <0>        -0.1110
     18 C12        -0.9935    1.6947    0.1565 C.ar      1 <0>        -0.0968
     19 C13        -0.0278    1.1318   -0.6532 C.ar      1 <0>        -0.0798
     20 C14         0.9469    1.9398   -1.2423 C.ar      1 <0>        -0.0036
     21 C15         0.9330    3.3171   -1.0186 C.ar      1 <0>        -0.0641
     22 C16         1.9539    1.3577   -2.0777 C.1       1 <0>         0.2492
     23 N4          2.7527    0.8960   -2.7403 N.1       1 <0>        -0.4034
     24 H1         -0.8781   10.0489    0.3901 H         1 <0>         0.1388
     25 H2          1.2909   11.1899    0.5548 H         1 <0>         0.1419
     26 H3          3.3750    9.9249    0.5226 H         1 <0>         0.1487
     27 H4         -0.9985    7.6196    0.1888 H         1 <0>         0.1332
     28 H5         -0.9004    5.7178    0.1239 H         1 <0>         0.4276
     29 H6         -1.7614    3.4923    1.0182 H         1 <0>         0.1356
     30 H7         -1.7438    1.0675    0.6148 H         1 <0>         0.1417
     31 H8         -0.0232    0.0660   -0.8274 H         1 <0>         0.1376
     32 H9          1.6815    3.9478   -1.4751 H         1 <0>         0.1408
@<TRIPOS>BOND
     1    1    6 ar
     2    1    2 ar
     3    1   24 1
     4    2    3 ar
     5    2   25 1
     6    3    4 ar
     7    3   26 1
     8    4   10 ar
     9    4    5 ar
    10    5    6 ar
    11    5    7 ar
    12    6   27 1
    13    7    8 ar
    14    7   15 1
    15    8    9 ar
    16    9   10 ar
    17    9   11 1
    18   11   12 1
    19   11   13 1
    20   11   14 1
    21   15   16 1
    22   15   28 1
    23   16   21 ar
    24   16   17 ar
    25   17   18 ar
    26   17   29 1
    27   18   19 ar
    28   18   30 1
    29   19   20 ar
    30   19   31 1
    31   20   21 ar
    32   20   22 1
    33   21   32 1
    34   22   23 3
@<TRIPOS>MOLECULE
ZINC37076822
   35    36     0     0     0
SMALL
USER_CHARGES

@<TRIPOS>ATOM
      1 C1         -0.0679    1.4215   -0.0341 C.3       1 <0>        -0.1246
      2 C2          0.0768   -0.0780    0.0050 C.ar      1 <0>        -0.0718
      3 C3          0.1707   -0.7944   -1.1738 C.ar      1 <0>        -0.1141
      4 C4          0.3035   -2.1697   -1.1379 C.ar      1 <0>        -0.1114
      5 C5          0.3428   -2.8289    0.0767 C.ar      1 <0>        -0.1189
      6 C6          0.2498   -2.1127    1.2551 C.ar      1 <0>        -0.1114
      7 C7          0.1213   -0.7366    1.2193 C.ar      1 <0>        -0.0973
      8 C8          0.0252    0.0449    2.5043 C.3       1 <0>         0.1829
      9 H1         -0.6200    0.9108    2.3555 H         1 <0>         0.0977
     10 C9          1.4205    0.5142    2.9214 C.3       1 <0>        -0.1668
     11 N1         -0.5370   -0.8085    3.5540 N.pl3     1 <0>        -0.7254
     12 C10        -1.2150   -0.2333    4.6353 C.ar      1 <0>         0.1886
     13 C11        -1.3602    1.1450    4.7111 C.ar      1 <0>        -0.0960
     14 C12        -2.0300    1.7108    5.7789 C.ar      1 <0>        -0.0462
     15 C13        -2.5569    0.9047    6.7737 C.ar      1 <0>         0.1415
     16 C14        -2.4138   -0.4706    6.7018 C.ar      1 <0>        -0.1414
     17 C15        -1.7491   -1.0422    5.6322 C.ar      1 <0>         0.1054
     18 F1         -1.6141   -2.3844    5.5589 F         1 <0>        -0.1153
     19 F2         -3.2114    1.4611    7.8165 F         1 <0>        -0.0985
     20 N2         -2.1842    3.1807    5.8596 N.pl3     1 <0>         0.0343
     21 O1         -1.7241    3.8854    4.9916 O.2       1 <0>        -0.1493
     22 O2         -2.7702    3.6767    6.7936 O.3       1 <0>        -0.1369
     23 H2          0.9199    1.8822   -0.0273 H         1 <0>         0.0772
     24 H3         -0.5979    1.7118   -0.9413 H         1 <0>         0.0720
     25 H4         -0.6304    1.7551    0.8379 H         1 <0>         0.0691
     26 H5          0.1400   -0.2794   -2.1226 H         1 <0>         0.1268
     27 H6          0.3761   -2.7293   -2.0587 H         1 <0>         0.1255
     28 H7          0.4458   -3.9037    0.1047 H         1 <0>         0.1250
     29 H8          0.2802   -2.6277    2.2039 H         1 <0>         0.1177
     30 H9          2.0656   -0.3517    3.0701 H         1 <0>         0.0656
     31 H10         1.8388    1.1491    2.1404 H         1 <0>         0.0757
     32 H11         1.3510    1.0794    3.8508 H         1 <0>         0.0649
     33 H12        -0.4396   -1.7720    3.4997 H         1 <0>         0.4109
     34 H13        -0.9494    1.7749    3.9360 H         1 <0>         0.1707
     35 H14        -2.8249   -1.0974    7.4793 H         1 <0>         0.1740
@<TRIPOS>BOND
     1    1    2 1
     2    1   23 1
     3    1   24 1
     4    1   25 1
     5    2    7 ar
     6    2    3 ar
     7    3    4 ar
     8    3   26 1
     9    4    5 ar
    10    4   27 1
    11    5    6 ar
    12    5   28 1
    13    6    7 ar
    14    6   29 1
    15    7    8 1
    16    8    9 1
    17    8   10 1
    18    8   11 1
    19   10   30 1
    20   10   31 1
    21   10   32 1
    22   11   12 1
    23   11   33 1
    24   12   17 ar
    25   12   13 ar
    26   13   14 ar
    27   13   34 1
    28   14   15 ar
    29   14   20 1
    30   15   16 ar
    31   15   19 1
    32   16   17 ar
    33   16   35 1
    34   17   18 1
    35   20   21 2
    36   20   22 1
@<TRIPOS>MOLECULE
ZINC41373875
   38    39     0     0     0
SMALL
USER_CHARGES

@<TRIPOS>ATOM
      1 C1         -0.8747    1.5354    0.8367 C.3       1 <0>        -0.1537
      2 C2         -0.9204    0.0078    0.9079 C.3       1 <0>         0.0793
      3 O1          0.2359   -0.4718    1.5971 O.3       1 <0>        -0.3596
      4 C3          0.3492   -1.8052    1.7465 C.2       1 <0>         0.6525
      5 O2         -0.5101   -2.5414    1.3038 O.2       1 <0>        -0.5494
      6 N1          1.4159   -2.3232    2.3871 N.am      1 <0>        -0.6477
      7 C4          1.4895   -3.7012    2.6230 C.ar      1 <0>         0.2171
      8 C5          0.9706   -4.5932    1.6958 C.ar      1 <0>        -0.1935
      9 C6          1.0453   -5.9584    1.9331 C.ar      1 <0>         0.2461
     10 C7          1.6392   -6.4283    3.0981 C.ar      1 <0>        -0.2025
     11 C8          2.1552   -5.5380    4.0199 C.ar      1 <0>        -0.0380
     12 C9          2.0875   -4.1774    3.7838 C.ar      1 <0>        -0.1209
     13 Cl1         2.7441   -3.0625    4.9412 Cl        1 <0>        -0.0717
     14 N2          0.5233   -6.8597    1.0016 N.pl3     1 <0>        -0.6205
     15 C10         0.0098   -6.3868   -0.2912 C.3       1 <0>         0.1182
     16 C11         0.7033   -7.1671   -1.4124 C.3       1 <0>        -0.1369
     17 C12         0.5189   -8.6675   -1.1738 C.3       1 <0>        -0.1201
     18 C13         1.1656   -9.0573    0.1574 C.3       1 <0>        -0.1376
     19 C14         0.4830   -8.2990    1.2939 C.3       1 <0>         0.1179
     20 H1          0.0224    1.8476    0.3020 H         1 <0>         0.0678
     21 H2         -1.7567    1.9012    0.3110 H         1 <0>         0.0844
     22 H3         -0.8572    1.9459    1.8463 H         1 <0>         0.0681
     23 H4         -1.8176   -0.3043    1.4425 H         1 <0>         0.0710
     24 H5         -0.9379   -0.4026   -0.1018 H         1 <0>         0.0706
     25 H6          2.1326   -1.7412    2.6847 H         1 <0>         0.4206
     26 H7          0.5090   -4.2257    0.7911 H         1 <0>         0.1524
     27 H8          1.6973   -7.4907    3.2834 H         1 <0>         0.1347
     28 H9          2.6160   -5.9056    4.9248 H         1 <0>         0.1388
     29 H10        -1.0660   -6.5545   -0.3406 H         1 <0>         0.0650
     30 H11         0.2213   -5.3232   -0.4014 H         1 <0>         0.0845
     31 H12         0.2630   -6.8945   -2.3715 H         1 <0>         0.0744
     32 H13         1.7666   -6.9276   -1.4185 H         1 <0>         0.0666
     33 H14        -0.5451   -8.9023   -1.1431 H         1 <0>         0.0641
     34 H15         0.9903   -9.2246   -1.9834 H         1 <0>         0.0655
     35 H16         1.0543  -10.1300    0.3156 H         1 <0>         0.0752
     36 H17         2.2246   -8.8000    0.1365 H         1 <0>         0.0672
     37 H18         1.0065   -8.4967    2.2293 H         1 <0>         0.0853
     38 H19        -0.5535   -8.6262    1.3767 H         1 <0>         0.0648
@<TRIPOS>BOND
     1    1    2 1
     2    1   20 1
     3    1   21 1
     4    1   22 1
     5    2    3 1
     6    2   23 1
     7    2   24 1
     8    3    4 1
     9    4    5 2
    10    4    6 am
    11    6    7 1
    12    6   25 1
    13    7   12 ar
    14    7    8 ar
    15    8    9 ar
    16    8   26 1
    17    9   10 ar
    18    9   14 1
    19   10   11 ar
    20   10   27 1
    21   11   12 ar
    22   11   28 1
    23   12   13 1
    24   14   19 1
    25   14   15 1
    26   15   16 1
    27   15   29 1
    28   15   30 1
    29   16   17 1
    30   16   31 1
    31   16   32 1
    32   17   18 1
    33   17   33 1
    34   17   34 1
    35   18   19 1
    36   18   35 1
    37   18   36 1
    38   19   37 1
    39   19   38 1
@<TRIPOS>MOLECULE
ZINC57818661
   43    46     0     0     0
SMALL
USER_CHARGES

@<TRIPOS>ATOM
      1 C1         -0.2241   -0.5133   -2.1294 C.ar      1 <0>        -0.1111
      2 C2          0.6862    0.5284   -2.1292 C.ar      1 <0>        -0.1203
      3 C3          1.9472    0.3463   -1.5992 C.ar      1 <0>        -0.0848
      4 C4          2.3031   -0.8908   -1.0632 C.ar      1 <0>        -0.0136
      5 C5          1.3812   -1.9370   -1.0662 C.ar      1 <0>        -0.1001
      6 C6          0.1232   -1.7429   -1.5990 C.ar      1 <0>        -0.1202
      7 C7          3.6560   -1.0931   -0.4929 C.2       1 <0>         0.1164
      8 C8          3.9680   -1.8863    0.5914 C.2       1 <0>         0.1568
      9 N1          5.3199   -1.7877    0.7775 N.pl3     1 <0>        -0.3542
     10 C9          6.1670   -2.3514    1.6918 C.2       1 <0>         0.0663
     11 C10         7.4887   -2.0860    1.6582 C.2       1 <0>        -0.1387
     12 C11         8.0150   -1.2238    0.6803 C.2       1 <0>        -0.0955
     13 C12         7.1864   -0.6559   -0.2358 C.2       1 <0>        -0.0802
     14 C13         5.8053   -0.9411   -0.1908 C.2       1 <0>         0.2414
     15 N2          4.7946   -0.5400   -0.9454 N.2       1 <0>        -0.4707
     16 N3          3.0762   -2.6439    1.3523 N.am      1 <0>        -0.6429
     17 C14         3.1402   -3.9898    1.3234 C.2       1 <0>         0.5165
     18 O1          4.0271   -4.5418    0.7065 O.2       1 <0>        -0.5128
     19 C15         2.1100   -4.8091    2.0572 C.3       1 <0>        -0.1035
     20 H1          2.1401   -4.5688    3.1200 H         1 <0>         0.1043
     21 C16         2.4008   -6.3019    1.8576 C.3       1 <0>        -0.1003
     22 C17         1.4536   -7.1034    2.7532 C.3       1 <0>        -0.0941
     23 C18         0.0420   -6.6286    2.5685 C.2       1 <0>        -0.1509
     24 C19        -0.2775   -5.4976    2.0259 C.2       1 <0>        -0.1573
     25 C20         0.7179   -4.5038    1.5001 C.3       1 <0>        -0.0824
     26 H2         -1.2114   -0.3647   -2.5413 H         1 <0>         0.1243
     27 H3          0.4096    1.4860   -2.5450 H         1 <0>         0.1266
     28 H4          2.6572    1.1601   -1.5999 H         1 <0>         0.1291
     29 H5          1.6514   -2.8975   -0.6528 H         1 <0>         0.1189
     30 H6         -0.5917   -2.5523   -1.6016 H         1 <0>         0.1253
     31 H7          5.7736   -3.0149    2.4477 H         1 <0>         0.1551
     32 H8          8.1461   -2.5376    2.3863 H         1 <0>         0.1527
     33 H9          9.0740   -1.0131    0.6571 H         1 <0>         0.1463
     34 H10         7.5815    0.0079   -0.9905 H         1 <0>         0.1558
     35 H11         2.4105   -2.2017    1.9020 H         1 <0>         0.4166
     36 H12         2.2345   -6.5713    0.8146 H         1 <0>         0.0732
     37 H13         3.4336   -6.5142    2.1339 H         1 <0>         0.0757
     38 H14         1.5165   -8.1598    2.4917 H         1 <0>         0.0788
     39 H15         1.7451   -6.9733    3.7954 H         1 <0>         0.0762
     40 H16        -0.7569   -7.2705    2.9092 H         1 <0>         0.1069
     41 H17        -1.3262   -5.2511    1.9493 H         1 <0>         0.1098
     42 H18         0.4219   -3.4981    1.7985 H         1 <0>         0.0803
     43 H19         0.7432   -4.5630    0.4120 H         1 <0>         0.0805
@<TRIPOS>BOND
     1    1    6 ar
     2    1    2 ar
     3    1   26 1
     4    2    3 ar
     5    2   27 1
     6    3    4 ar
     7    3   28 1
     8    4    5 ar
     9    4    7 1
    10    5    6 ar
    11    5   29 1
    12    6   30 1
    13    7   15 1
    14    7    8 2
    15    8    9 1
    16    8   16 1
    17    9   14 1
    18    9   10 1
    19   10   11 2
    20   10   31 1
    21   11   12 1
    22   11   32 1
    23   12   13 2
    24   12   33 1
    25   13   14 1
    26   13   34 1
    27   14   15 2
    28   16   17 am
    29   16   35 1
    30   17   18 2
    31   17   19 1
    32   19   20 1
    33   19   25 1
    34   19   21 1
    35   21   22 1
    36   21   36 1
    37   21   37 1
    38   22   23 1
    39   22   38 1
    40   22   39 1
    41   23   24 2
    42   23   40 1
    43   24   25 1
    44   24   41 1
    45   25   42 1
    46   25   43 1
@<TRIPOS>MOLECULE
ZINC61992277
   28    29     0     0     0
SMALL
USER_CHARGES

@<TRIPOS>ATOM
      1 C1         -0.0187    1.5258    0.0104 C.3       1 <0>        -0.1543
      2 C2          0.0021   -0.0041    0.0020 C.3       1 <0>         0.0767
      3 O1          0.6932   -0.4774    1.1597 O.3       1 <0>        -0.3459
      4 C3          0.8010   -1.8116    1.3043 C.2       1 <0>         0.6585
      5 O2          0.3213   -2.5537    0.4704 O.2       1 <0>        -0.5264
      6 N1          1.4409   -2.3240    2.3741 N.am      1 <0>        -0.5872
      7 C4          1.5517   -3.6969    2.5229 C.2       1 <0>         0.3744
      8 N2          2.1262   -4.3766    3.4876 N.2       1 <0>        -0.5363
      9 C5          2.1589   -5.7271    3.5044 C.ar      1 <0>         0.1169
     10 C6          2.7407   -6.5742    4.4759 C.ar      1 <0>        -0.0250
     11 C7          2.6857   -7.9366    4.3404 C.ar      1 <0>        -0.0851
     12 C8          2.0618   -8.5327    3.2529 C.ar      1 <0>        -0.0744
     13 C9          1.4816   -7.7339    2.2836 C.ar      1 <0>        -0.0324
     14 C10         1.5322   -6.3683    2.4118 C.ar      1 <0>        -0.1787
     15 S1          0.9421   -4.9931    1.4540 S.3       1 <0>         0.1293
     16 Br1         2.0060  -10.4165    3.0977 Br        1 <0>        -0.0293
     17 C11         3.4293   -5.9717    5.6733 C.3       1 <0>        -0.1128
     18 H1          1.0039    1.9031    0.0027 H         1 <0>         0.0698
     19 H2         -0.5459    1.8868   -0.8726 H         1 <0>         0.0882
     20 H3         -0.5289    1.8773    0.9072 H         1 <0>         0.0698
     21 H4         -1.0205   -0.3814    0.0098 H         1 <0>         0.0766
     22 H5          0.5123   -0.3556   -0.8948 H         1 <0>         0.0766
     23 H6          1.8238   -1.7315    3.0398 H         1 <0>         0.4362
     24 H7          3.1384   -8.5608    5.0966 H         1 <0>         0.1442
     25 H8          0.9926   -8.1820    1.4312 H         1 <0>         0.1437
     26 H9          2.7079   -5.8418    6.4801 H         1 <0>         0.0771
     27 H10         4.2289   -6.6344    6.0042 H         1 <0>         0.0719
     28 H11         3.8491   -5.0031    5.4019 H         1 <0>         0.0778
@<TRIPOS>BOND
     1    1    2 1
     2    1   18 1
     3    1   19 1
     4    1   20 1
     5    2    3 1
     6    2   21 1
     7    2   22 1
     8    3    4 1
     9    4    5 2
    10    4    6 am
    11    6    7 1
    12    6   23 1
    13    7   15 1
    14    7    8 2
    15    8    9 1
    16    9   14 ar
    17    9   10 ar
    18   10   11 ar
    19   10   17 1
    20   11   12 ar
    21   11   24 1
    22   12   13 ar
    23   12   16 1
    24   13   14 ar
    25   13   25 1
    26   14   15 1
    27   17   26 1
    28   17   27 1
    29   17   28 1
@<TRIPOS>MOLECULE
ZINC01403614
   37    39     0     0     0
SMALL
USER_CHARGES
3-(methylBLAHyl)sulfanylbutan-2-one
@<TRIPOS>ATOM
      1 C1          5.8496    3.2160   -0.0440 C.3       1 <0>        -0.1170
      2 C2          4.3843    2.8642   -0.0251 C.ar      1 <0>        -0.0873
      3 C3          3.4686    3.7018   -0.6402 C.ar      1 <0>        -0.0854
      4 C4          2.1239    3.3865   -0.6305 C.ar      1 <0>        -0.0903
      5 C5          1.6906    2.2282   -0.0021 C.ar      1 <0>        -0.0721
      6 C6          2.6088    1.3798    0.6262 C.ar      1 <0>        -0.0590
      7 C7          3.9659    1.7117    0.6046 C.ar      1 <0>        -0.0560
      8 C8          2.1751    0.1442    1.3120 C.ar      1 <0>         0.2427
      9 C9          0.9758   -0.5017    1.0350 C.ar      1 <0>        -0.1971
     10 C10         0.6633   -1.6536    1.7412 C.ar      1 <0>         0.1830
     11 N1          1.5069   -2.1071    2.6535 N.ar      1 <0>        -0.5226
     12 C11         2.6456   -1.4739    2.8985 C.ar      1 <0>         0.2943
     13 N2          2.9805   -0.3729    2.2475 N.ar      1 <0>        -0.4895
     14 S1          3.7393   -2.1149    4.1222 S.3       1 <0>         0.0623
     15 C12         2.7991   -3.5672    4.6543 C.3       1 <0>        -0.1332
     16 H1          1.8825   -3.2854    4.9377 H         1 <0>         0.1149
     17 C13         2.6919   -4.5585    3.4939 C.3       1 <0>        -0.1433
     18 C14         3.5034   -4.2245    5.8132 C.2       1 <0>         0.3711
     19 O1          4.6934   -4.0791    5.9577 O.2       1 <0>        -0.4349
     20 C15         2.7225   -5.0634    6.7917 C.3       1 <0>        -0.1860
     21 C16         0.0021   -0.0041    0.0020 C.3       1 <0>        -0.0546
     22 S2         -0.0225    1.8109    0.0120 S.3       1 <0>        -0.0947
     23 H2          6.0892    3.8216    0.8299 H         1 <0>         0.0757
     24 H3          6.4429    2.3018   -0.0263 H         1 <0>         0.0699
     25 H4          6.0764    3.7788   -0.9495 H         1 <0>         0.0709
     26 H5          3.8068    4.6040   -1.1282 H         1 <0>         0.1355
     27 H6          1.4114    4.0402   -1.1116 H         1 <0>         0.1388
     28 H7          4.6873    1.0650    1.0818 H         1 <0>         0.1391
     29 H8         -0.2619   -2.1761    1.5480 H         1 <0>         0.1795
     30 H9          3.6911   -4.8657    3.1850 H         1 <0>         0.0675
     31 H10         2.1258   -5.4331    3.8143 H         1 <0>         0.0739
     32 H11         2.1826   -4.0831    2.6557 H         1 <0>         0.0897
     33 H12         2.2909   -5.8248    6.3079 H         1 <0>         0.0879
     34 H13         3.3961   -5.4530    7.5549 H         1 <0>         0.0909
     35 H14         1.9544   -4.4506    7.2636 H         1 <0>         0.0983
     36 H15        -0.9944   -0.3818    0.2309 H         1 <0>         0.1296
     37 H16         0.3066   -0.3574   -0.9831 H         1 <0>         0.1077
@<TRIPOS>BOND
     1    1    2 1
     2    1   23 1
     3    1   24 1
     4    1   25 1
     5    2    7 ar
     6    2    3 ar
     7    3    4 ar
     8    3   26 1
     9    4    5 ar
    10    4   27 1
    11    5   22 1
    12    5    6 ar
    13    6    7 ar
    14    6    8 1
    15    7   28 1
    16    8   13 ar
    17    8    9 ar
    18    9   10 ar
    19    9   21 1
    20   10   11 ar
    21   10   29 1
    22   11   12 ar
    23   12   13 ar
    24   12   14 1
    25   14   15 1
    26   15   16 1
    27   15   17 1
    28   15   18 1
    29   17   30 1
    30   17   31 1
    31   17   32 1
    32   18   19 2
    33   18   20 1
    34   20   33 1
    35   20   34 1
    36   20   35 1
    37   21   22 1
    38   21   36 1
    39   21   37 1
@<TRIPOS>MOLECULE
ZINC36829457
   35    37     0     0     0
SMALL
USER_CHARGES

@<TRIPOS>ATOM
      1 C1          2.6129   -0.7850    1.5633 C.3       1 <0>        -0.1249
      2 C2          1.3827   -1.0812    0.7448 C.ar      1 <0>        -0.0459
      3 C3          1.5048   -1.6545   -0.5034 C.ar      1 <0>        -0.0919
      4 C4          0.3753   -1.9273   -1.2568 C.ar      1 <0>        -0.0730
      5 C5         -0.8834   -1.6268   -0.7626 C.ar      1 <0>        -0.0955
      6 C6         -1.0191   -1.0539    0.4839 C.ar      1 <0>        -0.0735
      7 C7          0.1161   -0.7810    1.2513 C.ar      1 <0>        -0.1324
      8 C8         -0.0222   -0.1720    2.5901 C.2       1 <0>         0.4511
      9 O1         -0.2820    1.0112    2.6959 O.2       1 <0>        -0.4358
     10 C9          0.1547   -0.9990    3.7983 C.ar      1 <0>        -0.1915
     11 C10         0.4535   -2.3607    3.6826 C.ar      1 <0>        -0.0268
     12 C11         0.6182   -3.1309    4.8087 C.ar      1 <0>        -0.1517
     13 C12         0.4884   -2.5616    6.0782 C.ar      1 <0>         0.1842
     14 C13         0.1908   -1.2056    6.1868 C.ar      1 <0>        -0.1580
     15 C14         0.0305   -0.4262    5.0693 C.ar      1 <0>        -0.0006
     16 C15         0.1189   -0.9048    7.6666 C.3       1 <0>        -0.1134
     17 C16         0.4082   -2.2370    8.3252 C.2       1 <0>         0.5260
     18 O2          0.4519   -2.4567    9.5171 O.2       1 <0>        -0.4907
     19 N1          0.6078   -3.1298    7.3416 N.am      1 <0>        -0.5530
     20 C17         0.9158   -4.5431    7.5738 C.3       1 <0>         0.0728
     21 Br1         0.5520   -2.7130   -2.9677 Br        1 <0>        -0.0409
     22 H1          2.7938   -1.6058    2.2574 H         1 <0>         0.0819
     23 H2          3.4716   -0.6732    0.9013 H         1 <0>         0.0780
     24 H3          2.4632    0.1381    2.1233 H         1 <0>         0.0709
     25 H4          2.4833   -1.8909   -0.8944 H         1 <0>         0.1404
     26 H5         -1.7604   -1.8414   -1.3553 H         1 <0>         0.1405
     27 H6         -2.0010   -0.8197    0.8679 H         1 <0>         0.1382
     28 H7          0.5548   -2.8083    2.7050 H         1 <0>         0.1393
     29 H8          0.8488   -4.1815    4.7121 H         1 <0>         0.1348
     30 H9         -0.1957    0.6251    5.1700 H         1 <0>         0.1432
     31 H10         0.8739   -0.1693    7.9442 H         1 <0>         0.1285
     32 H11        -0.8766   -0.5528    7.9372 H         1 <0>         0.1285
     33 H12         1.9961   -4.6742    7.6352 H         1 <0>         0.0712
     34 H13         0.4569   -4.8662    8.5083 H         1 <0>         0.0875
     35 H14         0.5235   -5.1405    6.7508 H         1 <0>         0.0825
@<TRIPOS>BOND
     1    1    2 1
     2    1   22 1
     3    1   23 1
     4    1   24 1
     5    2    7 ar
     6    2    3 ar
     7    3    4 ar
     8    3   25 1
     9    4    5 ar
    10    4   21 1
    11    5    6 ar
    12    5   26 1
    13    6    7 ar
    14    6   27 1
    15    7    8 1
    16    8    9 2
    17    8   10 1
    18   10   15 ar
    19   10   11 ar
    20   11   12 ar
    21   11   28 1
    22   12   13 ar
    23   12   29 1
    24   13   19 1
    25   13   14 ar
    26   14   15 ar
    27   14   16 1
    28   15   30 1
    29   16   17 1
    30   16   31 1
    31   16   32 1
    32   17   18 2
    33   17   19 am
    34   19   20 1
    35   20   33 1
    36   20   34 1
    37   20   35 1
@<TRIPOS>MOLECULE
ZINC43426477
   37    39     0     0     0
SMALL
USER_CHARGES

@<TRIPOS>ATOM
      1 C1         -0.0162    1.3428    0.0094 C.2       1 <0>        -0.0927
      2 C2          1.2776    1.9891    0.0005 C.2       1 <0>        -0.2080
      3 C3          2.3850    1.1601   -0.0145 C.2       1 <0>        -0.1229
      4 S1          1.7394   -0.3884   -0.0166 S.3       1 <0>         0.2903
      5 C4          0.0021   -0.0041    0.0020 C.2       1 <0>        -0.1541
      6 Cl1        -1.3441   -1.1002    0.0095 Cl        1 <0>         0.0311
      7 Cl2         4.0596    1.6175   -0.0289 Cl        1 <0>         0.0588
      8 C5          1.4085    3.4448    0.0066 C.2       1 <0>         0.4085
      9 O1          2.5098    3.9552   -0.0011 O.2       1 <0>        -0.4171
     10 C6          0.1762    4.3121    0.0226 C.3       1 <0>         0.0124
     11 N1          0.5729    5.7265    0.0260 N.3       1 <0>        -0.5172
     12 C7          1.2512    6.0805    1.2815 C.3       1 <0>         0.0084
     13 C8          1.6999    7.5428    1.2214 C.3       1 <0>         0.0670
     14 O2          0.5666    8.3761    0.9609 O.3       1 <0>        -0.3759
     15 C9         -0.1133    8.0544   -0.2544 C.3       1 <0>         0.1013
     16 H1          0.5700    8.1781   -1.0946 H         1 <0>         0.0662
     17 C10        -0.5899    6.6011   -0.1974 C.3       1 <0>         0.0541
     18 H2         -1.0720    6.3364   -1.1385 H         1 <0>         0.0940
     19 C11        -1.5720    6.4306    0.9640 C.3       1 <0>        -0.1497
     20 C12        -2.7702    7.3600    0.7637 C.3       1 <0>        -0.1142
     21 C13        -2.2863    8.8111    0.7222 C.3       1 <0>        -0.1183
     22 C14        -1.3147    8.9805   -0.4376 C.3       1 <0>        -0.1113
     23 H3         -0.9385    1.9045    0.0256 H         1 <0>         0.1619
     24 H4         -0.4250    4.1055   -0.8629 H         1 <0>         0.1106
     25 H5         -0.4083    4.0966    0.9170 H         1 <0>         0.0731
     26 H6          0.5641    5.9450    2.1167 H         1 <0>         0.0446
     27 H7          2.1214    5.4385    1.4182 H         1 <0>         0.0977
     28 H8          2.1477    7.8253    2.1742 H         1 <0>         0.0979
     29 H9          2.4328    7.6659    0.4240 H         1 <0>         0.0606
     30 H10        -1.9164    5.3970    0.9993 H         1 <0>         0.0600
     31 H11        -1.0729    6.6786    1.9008 H         1 <0>         0.0733
     32 H12        -3.2670    7.1155   -0.1751 H         1 <0>         0.0617
     33 H13        -3.4703    7.2337    1.5895 H         1 <0>         0.0627
     34 H14        -3.1395    9.4753    0.5843 H         1 <0>         0.0636
     35 H15        -1.7836    9.0538    1.6585 H         1 <0>         0.0707
     36 H16        -0.9740   10.0155   -0.4656 H         1 <0>         0.0733
     37 H17        -1.8189    8.7397   -1.3735 H         1 <0>         0.0775
@<TRIPOS>BOND
     1    1    5 2
     2    1    2 1
     3    1   23 1
     4    2    3 2
     5    2    8 1
     6    3    4 1
     7    3    7 1
     8    4    5 1
     9    5    6 1
    10    8    9 2
    11    8   10 1
    12   10   11 1
    13   10   24 1
    14   10   25 1
    15   11   17 1
    16   11   12 1
    17   12   13 1
    18   12   26 1
    19   12   27 1
    20   13   14 1
    21   13   28 1
    22   13   29 1
    23   14   15 1
    24   15   16 1
    25   15   22 1
    26   15   17 1
    27   17   18 1
    28   17   19 1
    29   19   20 1
    30   19   30 1
    31   19   31 1
    32   20   21 1
    33   20   32 1
    34   20   33 1
    35   21   22 1
    36   21   34 1
    37   21   35 1
    38   22   36 1
    39   22   37 1
@<TRIPOS>MOLECULE
ZINC50973100
   35    37     0     0     0
SMALL
USER_CHARGES

@<TRIPOS>ATOM
      1 C1         -0.0167    1.3823    0.0096 C.ar      1 <0>        -0.0945
      2 C2          1.1699    2.0914    0.0021 C.ar      1 <0>        -0.0784
      3 C3          2.3791    1.4201   -0.0138 C.ar      1 <0>        -0.0008
      4 C4          2.4043    0.0370   -0.0232 C.ar      1 <0>        -0.1084
      5 C5          1.2171   -0.6793   -0.0159 C.ar      1 <0>         0.0700
      6 C6          0.0021   -0.0041    0.0020 C.ar      1 <0>         0.0570
      7 O1         -1.1748   -0.6882    0.0165 O.3       1 <0>        -0.3019
      8 C7         -1.1226   -2.0664   -0.3680 C.3       1 <0>         0.0189
      9 C8          0.0602   -2.7230    0.3567 C.3       1 <0>         0.0195
     10 O2          1.2577   -2.0397   -0.0293 O.3       1 <0>        -0.3020
     11 Cl1         3.8670    2.3143   -0.0227 Cl        1 <0>        -0.0366
     12 C9          1.1460    3.5982    0.0108 C.3       1 <0>         0.0013
     13 H1          1.9761    3.9782   -0.5846 H         1 <0>         0.1290
     14 C10         1.2775    4.1021    1.4495 C.3       1 <0>         0.1015
     15 H2          0.4474    3.7221    2.0450 H         1 <0>         0.0702
     16 C11         1.2538    5.6328    1.4585 C.3       1 <0>        -0.1566
     17 C12         1.4463    6.1302    2.8945 C.3       1 <0>        -0.1198
     18 C13         2.7588    5.5658    3.4470 C.3       1 <0>        -0.1575
     19 C14         2.7243    4.0377    3.3611 C.3       1 <0>         0.0623
     20 O3          2.5116    3.6426    2.0044 O.3       1 <0>        -0.3588
     21 Br1        -0.5516    4.2311   -0.7525 Br        1 <0>        -0.1178
     22 H3         -0.9596    1.9088    0.0260 H         1 <0>         0.1529
     23 H4          3.3495   -0.4853   -0.0366 H         1 <0>         0.1485
     24 H5         -2.0500   -2.5630   -0.0828 H         1 <0>         0.1264
     25 H6         -0.9810   -2.1421   -1.4461 H         1 <0>         0.0810
     26 H7         -0.0783   -2.6417    1.4348 H         1 <0>         0.0810
     27 H8          0.1283   -3.7731    0.0724 H         1 <0>         0.1267
     28 H9          2.0591    6.0133    0.8302 H         1 <0>         0.0762
     29 H10         0.2954    5.9845    1.0766 H         1 <0>         0.0837
     30 H11         1.4864    7.2194    2.9007 H         1 <0>         0.0705
     31 H12         0.6148    5.7911    3.5123 H         1 <0>         0.0643
     32 H13         3.5945    5.9450    2.8588 H         1 <0>         0.0725
     33 H14         2.8766    5.8697    4.4871 H         1 <0>         0.0736
     34 H15         3.6729    3.6324    3.7133 H         1 <0>         0.0965
     35 H16         1.9133    3.6569    3.9818 H         1 <0>         0.0496
@<TRIPOS>BOND
     1    1    6 ar
     2    1    2 ar
     3    1   22 1
     4    2    3 ar
     5    2   12 1
     6    3    4 ar
     7    3   11 1
     8    4    5 ar
     9    4   23 1
    10    5   10 1
    11    5    6 ar
    12    6    7 1
    13    7    8 1
    14    8    9 1
    15    8   24 1
    16    8   25 1
    17    9   10 1
    18    9   26 1
    19    9   27 1
    20   12   13 1
    21   12   14 1
    22   12   21 1
    23   14   15 1
    24   14   20 1
    25   14   16 1
    26   16   17 1
    27   16   28 1
    28   16   29 1
    29   17   18 1
    30   17   30 1
    31   17   31 1
    32   18   19 1
    33   18   32 1
    34   18   33 1
    35   19   20 1
    36   19   34 1
    37   19   35 1
@<TRIPOS>MOLECULE
ZINC64034124
   26    27     0     0     0
SMALL
USER_CHARGES

@<TRIPOS>ATOM
      1 C1         -0.0163    1.3497    0.0095 C.2       1 <0>        -0.1761
      2 C2          1.3085    1.7979   -0.0008 C.2       1 <0>        -0.0205
      3 N1          2.0941    0.7517   -0.0139 N.2       1 <0>        -0.1881
      4 N2          1.2931   -0.3976   -0.0124 N.pl3     1 <0>        -0.3276
      5 C3          0.0021   -0.0041    0.0020 C.2       1 <0>         0.0590
      6 I1         -1.6729   -1.2624    0.0123 I         1 <0>         0.0672
      7 C4          1.7721   -1.7820   -0.0244 C.3       1 <0>         0.3313
      8 H1          0.9554   -2.4516    0.2453 H         1 <0>         0.1001
      9 C5          2.2798   -2.1344   -1.4250 C.3       1 <0>        -0.1612
     10 C6          2.8340   -3.5624   -1.4144 C.3       1 <0>        -0.1197
     11 C7          3.9352   -3.6631   -0.3545 C.3       1 <0>        -0.1626
     12 C8          3.3636   -3.2516    1.0048 C.3       1 <0>         0.0668
     13 O1          2.8372   -1.9259    0.9173 O.3       1 <0>        -0.3744
     14 C9          1.7543    3.2375    0.0022 C.3       1 <0>         0.5595
     15 F1          1.9046    3.6763    1.3221 F         1 <0>        -0.1641
     16 F2          2.9771    3.3484   -0.6683 F         1 <0>        -0.1639
     17 F3          0.7949    4.0240   -0.6443 F         1 <0>        -0.1621
     18 H2         -0.8980    1.9732    0.0252 H         1 <0>         0.1740
     19 H3          1.4579   -2.0680   -2.1379 H         1 <0>         0.0837
     20 H4          3.0691   -1.4395   -1.7119 H         1 <0>         0.0902
     21 H5          2.0333   -4.2625   -1.1760 H         1 <0>         0.0714
     22 H6          3.2482   -3.8001   -2.3943 H         1 <0>         0.0832
     23 H7          4.2972   -4.6899   -0.3017 H         1 <0>         0.0856
     24 H8          4.7579   -2.9991   -0.6198 H         1 <0>         0.0792
     25 H9          2.5678   -3.9405    1.2881 H         1 <0>         0.0594
     26 H10         4.1537   -3.2803    1.7551 H         1 <0>         0.1097
@<TRIPOS>BOND
     1    1    5 2
     2    1    2 1
     3    1   18 1
     4    2    3 2
     5    2   14 1
     6    3    4 1
     7    4    5 1
     8    4    7 1
     9    5    6 1
    10    7    8 1
    11    7   13 1
    12    7    9 1
    13    9   10 1
    14    9   19 1
    15    9   20 1
    16   10   11 1
    17   10   21 1
    18   10   22 1
    19   11   12 1
    20   11   23 1
    21   11   24 1
    22   12   13 1
    23   12   25 1
    24   12   26 1
    25   14   15 1
    26   14   16 1
    27   14   17 1
@<TRIPOS>MOLECULE
ZINC04825047
   30    32     0     0     0
SMALL
USER_CHARGES
2-[4-(2,4-dichlorophenyl)thiazol-2-yl]-3-(2-furyl)prop-2-enenitrile
@<TRIPOS>ATOM
      1 C1         -1.0458    7.6167    0.1675 C.2       1 <0>        -0.2190
      2 C2          0.3479    7.5531    0.3149 C.2       1 <0>        -0.1284
      3 C3          0.7268    6.2832   -0.0769 C.2       1 <0>        -0.0497
      4 O1         -0.3871    5.6175   -0.4480 O.3       1 <0>        -0.1503
      5 C4         -1.4546    6.4149   -0.2965 C.2       1 <0>         0.0030
      6 C5          2.0435    5.7753   -0.0920 C.2       1 <0>         0.0373
      7 C6          2.2838    4.4693    0.2846 C.2       1 <0>         0.0336
      8 C7          3.5727    3.8859    0.0631 C.1       1 <0>         0.2587
      9 N1          4.5951    3.4230   -0.1127 N.1       1 <0>        -0.3856
     10 C8          1.2143    3.6755    0.9146 C.2       1 <0>         0.1357
     11 N2          1.1432    2.3654    1.1054 N.2       1 <0>        -0.4589
     12 C9          0.0976    1.8153    1.6940 C.2       1 <0>         0.0905
     13 C10        -0.9366    2.6121    2.1113 C.2       1 <0>        -0.1997
     14 S1         -0.3325    4.2230    1.6239 S.3       1 <0>         0.0929
     15 C11         0.0396    0.3469    1.8965 C.ar      1 <0>        -0.0146
     16 C12        -1.0638   -0.2296    2.5231 C.ar      1 <0>        -0.0821
     17 C13        -1.1157   -1.5965    2.7039 C.ar      1 <0>        -0.1063
     18 C14        -0.0689   -2.3948    2.2746 C.ar      1 <0>        -0.0194
     19 C15         1.0321   -1.8277    1.6569 C.ar      1 <0>        -0.1067
     20 C16         1.0916   -0.4610    1.4657 C.ar      1 <0>        -0.0023
     21 Cl1         2.4733    0.2497    0.6913 Cl        1 <0>        -0.0167
     22 Cl2        -0.1381   -4.1132    2.5115 Cl        1 <0>        -0.0540
     23 H1         -1.6748    8.4673    0.3847 H         1 <0>         0.1581
     24 H2          0.9971    8.3416    0.6657 H         1 <0>         0.1618
     25 H3         -2.4766    6.1419   -0.5145 H         1 <0>         0.2090
     26 H4          2.8630    6.4086   -0.3983 H         1 <0>         0.1757
     27 H5         -1.8608    2.3417    2.6004 H         1 <0>         0.2023
     28 H6         -1.8789    0.3922    2.8628 H         1 <0>         0.1437
     29 H7         -1.9727   -2.0443    3.1851 H         1 <0>         0.1448
     30 H8          1.8462   -2.4546    1.3241 H         1 <0>         0.1466
@<TRIPOS>BOND
     1    1    5 2
     2    1    2 1
     3    1   23 1
     4    2    3 2
     5    2   24 1
     6    3    4 1
     7    3    6 1
     8    4    5 1
     9    5   25 1
    10    6    7 2
    11    6   26 1
    12    7    8 1
    13    7   10 1
    14    8    9 3
    15   10   14 1
    16   10   11 2
    17   11   12 1
    18   12   13 2
    19   12   15 1
    20   13   14 1
    21   13   27 1
    22   15   20 ar
    23   15   16 ar
    24   16   17 ar
    25   16   28 1
    26   17   18 ar
    27   17   29 1
    28   18   19 ar
    29   18   22 1
    30   19   20 ar
    31   19   30 1
    32   20   21 1
@<TRIPOS>MOLECULE
ZINC00210403
   50    52     0     0     0
SMALL
USER_CHARGES
3-cyclohexyl-5-[(4-isopropylphenyl)methylene]-1-methyl-2-thioxo-imidazolidin-4-one
@<TRIPOS>ATOM
      1 C1          8.7550    6.1714   -2.3343 C.3       1 <0>        -0.1463
      2 C2          8.6920    5.7361   -0.8689 C.3       1 <0>        -0.0624
      3 C3          8.2804    6.9266   -0.0005 C.3       1 <0>        -0.1463
      4 C4          7.6802    4.6296   -0.7166 C.ar      1 <0>        -0.0511
      5 C5          8.0784    3.3942   -0.2359 C.ar      1 <0>        -0.1196
      6 C6          7.1589    2.3769   -0.0932 C.ar      1 <0>        -0.0828
      7 C7          5.8202    2.5959   -0.4359 C.ar      1 <0>        -0.1011
      8 C8          5.4270    3.8459   -0.9265 C.ar      1 <0>        -0.0894
      9 C9          6.3578    4.8545   -1.0578 C.ar      1 <0>        -0.1202
     10 C10         4.8330    1.5166   -0.2868 C.2       1 <0>         0.0137
     11 C11         3.6362    1.7687    0.2980 C.2       1 <0>        -0.0149
     12 C12         2.4585    0.8848    0.3433 C.2       1 <0>         0.5489
     13 O1          2.3604   -0.2279   -0.1392 O.2       1 <0>        -0.4481
     14 N1          1.5113    1.5579    1.0275 N.am      1 <0>        -0.5273
     15 C13         1.9842    2.7577    1.3980 C.2       1 <0>         0.5184
     16 S1          1.0901    3.9212    2.2800 S.2       1 <0>        -0.5238
     17 N2          3.2539    2.9246    0.9881 N.pl3     1 <0>        -0.4935
     18 C14         4.0862    4.1083    1.2168 C.3       1 <0>         0.0790
     19 C15         0.1655    1.0568    1.3175 C.3       1 <0>         0.1519
     20 C16        -0.0408    0.9964    2.8323 C.3       1 <0>        -0.1465
     21 C17        -1.4463    0.4731    3.1351 C.3       1 <0>        -0.1103
     22 C18        -2.4842    1.4113    2.5161 C.3       1 <0>        -0.1227
     23 C19        -2.2779    1.4718    1.0013 C.3       1 <0>        -0.1102
     24 C20        -0.8724    1.9951    0.6984 C.3       1 <0>        -0.1474
     25 H1          7.7749    6.5294   -2.6495 H         1 <0>         0.0578
     26 H2          9.4868    6.9717   -2.4444 H         1 <0>         0.0615
     27 H3          9.0482    5.3232   -2.9530 H         1 <0>         0.0569
     28 H4          9.6721    5.3781   -0.5538 H         1 <0>         0.0808
     29 H5          8.2355    6.6164    1.0435 H         1 <0>         0.0575
     30 H6          9.0122    7.7268   -0.1106 H         1 <0>         0.0615
     31 H7          7.3003    7.2846   -0.3156 H         1 <0>         0.0583
     32 H8          9.1121    3.2269    0.0285 H         1 <0>         0.1293
     33 H9          7.4711    1.4136    0.2823 H         1 <0>         0.1312
     34 H10         4.3964    4.0214   -1.1977 H         1 <0>         0.1252
     35 H11         6.0550    5.8213   -1.4319 H         1 <0>         0.1298
     36 H12         5.0612    0.5230   -0.6432 H         1 <0>         0.1656
     37 H13         3.9731    4.7990    0.3812 H         1 <0>         0.0887
     38 H14         3.7742    4.5992    2.1387 H         1 <0>         0.1052
     39 H15         5.1305    3.8075    1.3008 H         1 <0>         0.0975
     40 H16         0.0507    0.0586    0.8950 H         1 <0>         0.1073
     41 H17         0.6987    0.3279    3.2733 H         1 <0>         0.0611
     42 H18         0.0741    1.9946    3.2547 H         1 <0>         0.1080
     43 H19        -1.5932    0.4300    4.2143 H         1 <0>         0.0708
     44 H20        -1.5611   -0.5252    2.7127 H         1 <0>         0.0611
     45 H21        -2.3693    2.4096    2.9385 H         1 <0>         0.0708
     46 H22        -3.4855    1.0385    2.7318 H         1 <0>         0.0649
     47 H23        -3.0173    2.1402    0.5603 H         1 <0>         0.0707
     48 H24        -2.3928    0.4735    0.5788 H         1 <0>         0.0610
     49 H25        -0.7576    2.9933    1.1209 H         1 <0>         0.1088
     50 H26        -0.7255    2.0381   -0.3807 H         1 <0>         0.0607
@<TRIPOS>BOND
     1    1    2 1
     2    1   25 1
     3    1   26 1
     4    1   27 1
     5    2    3 1
     6    2    4 1
     7    2   28 1
     8    3   29 1
     9    3   30 1
    10    3   31 1
    11    4    9 ar
    12    4    5 ar
    13    5    6 ar
    14    5   32 1
    15    6    7 ar
    16    6   33 1
    17    7    8 ar
    18    7   10 1
    19    8    9 ar
    20    8   34 1
    21    9   35 1
    22   10   11 2
    23   10   36 1
    24   11   17 1
    25   11   12 1
    26   12   13 2
    27   12   14 am
    28   14   15 1
    29   14   19 1
    30   15   16 2
    31   15   17 1
    32   17   18 1
    33   18   37 1
    34   18   38 1
    35   18   39 1
    36   19   24 1
    37   19   20 1
    38   19   40 1
    39   20   21 1
    40   20   41 1
    41   20   42 1
    42   21   22 1
    43   21   43 1
    44   21   44 1
    45   22   23 1
    46   22   45 1
    47   22   46 1
    48   23   24 1
    49   23   47 1
    50   23   48 1
    51   24   49 1
    52   24   50 1
@<TRIPOS>MOLECULE
ZINC25595288
   53    56     0     0     0
SMALL
USER_CHARGES
[(1R,2S)-2-(1,3-benzothiazol-2-yl)cyclohexyl]-[(3S,5S)-3,5-dimethyl-1-piperidyl]methanone
@<TRIPOS>ATOM
      1 C1          2.7053    4.0474   -3.6952 C.3       1 <0>        -0.1401
      2 C2          2.3353    5.5318   -3.6718 C.3       1 <0>        -0.1066
      3 H1          3.2529    6.1306   -3.5745 H         1 <0>         0.0798
      4 C3          1.6182    5.9001   -4.9727 C.3       1 <0>        -0.1097
      5 C4          0.3644    5.0364   -5.1281 C.3       1 <0>        -0.1103
      6 H2          0.6480    3.9736   -5.1343 H         1 <0>         0.0767
      7 C5         -0.5864    5.3084   -3.9582 C.3       1 <0>         0.1079
      8 N1          0.1403    5.0961   -2.6990 N.am      1 <0>        -0.6110
      9 C6          1.4040    5.8137   -2.4830 C.3       1 <0>         0.1187
     10 C7         -0.3459    4.2631   -1.7576 C.2       1 <0>         0.5241
     11 O1          0.2188    4.1597   -0.6893 O.2       1 <0>        -0.4929
     12 C8         -1.5912    3.4601   -2.0325 C.3       1 <0>        -0.0986
     13 H3         -1.5276    3.0497   -3.0511 H         1 <0>         0.0929
     14 C9         -2.8187    4.3655   -1.9120 C.3       1 <0>        -0.1120
     15 C10        -2.8877    4.9456   -0.4979 C.3       1 <0>        -0.1238
     16 C11        -2.9935    3.8053    0.5166 C.3       1 <0>        -0.1151
     17 C12        -1.7660    2.8999    0.3961 C.3       1 <0>        -0.1343
     18 C13        -1.6970    2.3198   -1.0180 C.3       1 <0>         0.0236
     19 H4         -2.5972    1.7211   -1.2210 H         1 <0>         0.1009
     20 C14        -0.4880    1.4280   -1.1366 C.2       1 <0>         0.1438
     21 N2          0.7670    1.7425   -0.9797 N.2       1 <0>        -0.4642
     22 C15         1.7627    0.8428   -1.1201 C.ar      1 <0>         0.0790
     23 C16         3.1563    1.0283   -0.9829 C.ar      1 <0>        -0.0563
     24 C17         4.0163   -0.0100   -1.1641 C.ar      1 <0>        -0.1135
     25 C18         3.5643   -1.2818   -1.4882 C.ar      1 <0>        -0.0962
     26 C19         2.2078   -1.5044   -1.6313 C.ar      1 <0>        -0.0686
     27 C20         1.3311   -0.4623   -1.4500 C.ar      1 <0>        -0.1501
     28 S1         -0.4313   -0.2638   -1.5228 S.3       1 <0>        -0.0013
     29 C21        -0.3340    5.3823   -6.4447 C.3       1 <0>        -0.1487
     30 H5          3.3720    3.8491   -4.5474 H         1 <0>         0.0504
     31 H6          1.7916    3.4433   -3.7962 H         1 <0>         0.0545
     32 H7          3.2183    3.7826   -2.7589 H         1 <0>         0.0535
     33 H8          1.3305    6.9615   -4.9450 H         1 <0>         0.0645
     34 H9          2.2914    5.7248   -5.8248 H         1 <0>         0.0651
     35 H10        -0.9452    6.3469   -4.0112 H         1 <0>         0.0696
     36 H11        -1.4433    4.6210   -4.0147 H         1 <0>         0.0853
     37 H12         1.8792    5.4651   -1.5542 H         1 <0>         0.0937
     38 H13         1.2142    6.8950   -2.4142 H         1 <0>         0.0628
     39 H14        -2.7426    5.1854   -2.6414 H         1 <0>         0.0742
     40 H15        -3.7277    3.7795   -2.1127 H         1 <0>         0.0792
     41 H16        -1.9787    5.5317   -0.2973 H         1 <0>         0.0660
     42 H17        -3.7702    5.5965   -0.4112 H         1 <0>         0.0676
     43 H18        -3.0431    4.2224    1.5332 H         1 <0>         0.0678
     44 H19        -3.9025    3.2192    0.3161 H         1 <0>         0.0610
     45 H20        -0.8570    3.4860    0.5968 H         1 <0>         0.1236
     46 H21        -1.8421    2.0800    1.1255 H         1 <0>         0.0598
     47 H22         3.5431    2.0049   -0.7317 H         1 <0>         0.1303
     48 H23         5.0772    0.1595   -1.0535 H         1 <0>         0.1327
     49 H24         4.2666   -2.0904   -1.6276 H         1 <0>         0.1378
     50 H25         1.8403   -2.4884   -1.8824 H         1 <0>         0.1323
     51 H26        -1.2351    4.7613   -6.5559 H         1 <0>         0.0571
     52 H27         0.3501    5.1896   -7.2843 H         1 <0>         0.0594
     53 H28        -0.6191    6.4447   -6.4404 H         1 <0>         0.0578
@<TRIPOS>BOND
     1    1    2 1
     2    1   30 1
     3    1   31 1
     4    1   32 1
     5    2    3 1
     6    2    9 1
     7    2    4 1
     8    4    5 1
     9    4   33 1
    10    4   34 1
    11    5    6 1
    12    5    7 1
    13    5   29 1
    14    7    8 1
    15    7   35 1
    16    7   36 1
    17    8    9 1
    18    8   10 am
    19    9   37 1
    20    9   38 1
    21   10   11 2
    22   10   12 1
    23   12   13 1
    24   12   18 1
    25   12   14 1
    26   14   15 1
    27   14   39 1
    28   14   40 1
    29   15   16 1
    30   15   41 1
    31   15   42 1
    32   16   17 1
    33   16   43 1
    34   16   44 1
    35   17   18 1
    36   17   45 1
    37   17   46 1
    38   18   19 1
    39   18   20 1
    40   20   28 1
    41   20   21 2
    42   21   22 1
    43   22   27 ar
    44   22   23 ar
    45   23   24 ar
    46   23   47 1
    47   24   25 ar
    48   24   48 1
    49   25   26 ar
    50   25   49 1
    51   26   27 ar
    52   26   50 1
    53   27   28 1
    54   29   51 1
    55   29   52 1
    56   29   53 1
@<TRIPOS>MOLECULE
ZINC40965018
   31    33     0     0     0
SMALL
USER_CHARGES

@<TRIPOS>ATOM
      1 C1          0.1121    2.0254   -0.6036 C.3       1 <0>        -0.1458
      2 C2          0.0618    0.5357   -0.2583 C.3       1 <0>        -0.0580
      3 C3          0.7333   -0.2561   -1.3507 C.2       1 <0>         0.0636
      4 C4          0.1183   -0.8436   -2.4082 C.2       1 <0>         0.0625
      5 N1          1.0629   -1.4522   -3.1537 N.2       1 <0>        -0.4051
      6 C5          2.2235   -1.2612   -2.5973 C.2       1 <0>         0.1375
      7 N2          2.0918   -0.5109   -1.4601 N.pl3     1 <0>        -0.3227
      8 N3          3.2630   -0.2253   -0.7653 N.2       1 <0>        -0.2768
      9 C6          4.4229   -0.6538   -1.1874 C.2       1 <0>         0.0822
     10 S1          3.9760   -1.5516   -2.6650 S.3       1 <0>         0.1724
     11 S2          6.0172   -0.4153   -0.4761 S.3       1 <0>         0.0939
     12 C7          5.6923    0.5787    1.0061 C.3       1 <0>        -0.1595
     13 C8         -1.3370   -0.8203   -2.6938 C.ar      1 <0>         0.0164
     14 C9         -1.7914   -0.5950   -3.9920 C.ar      1 <0>        -0.0833
     15 C10        -3.1464   -0.5748   -4.2525 C.ar      1 <0>        -0.0872
     16 C11        -4.0537   -0.7775   -3.2270 C.ar      1 <0>        -0.0864
     17 C12        -3.6078   -1.0012   -1.9359 C.ar      1 <0>        -0.0868
     18 C13        -2.2548   -1.0295   -1.6659 C.ar      1 <0>        -0.1013
     19 Br1        -5.9091   -0.7479   -3.5912 Br        1 <0>        -0.0470
     20 H1          1.1509    2.3421   -0.6958 H         1 <0>         0.0527
     21 H2         -0.4053    2.1972   -1.5475 H         1 <0>         0.0608
     22 H3         -0.3737    2.5980    0.1865 H         1 <0>         0.0685
     23 H4          0.5791    0.3638    0.6855 H         1 <0>         0.0804
     24 H5         -0.9771    0.2189   -0.1662 H         1 <0>         0.0986
     25 H6          5.2265    1.5208    0.7169 H         1 <0>         0.0974
     26 H7          5.0236    0.0319    1.6709 H         1 <0>         0.0974
     27 H8          6.6314    0.7808    1.5211 H         1 <0>         0.1266
     28 H9         -1.0842   -0.4360   -4.7927 H         1 <0>         0.1368
     29 H10        -3.4995   -0.4003   -5.2581 H         1 <0>         0.1379
     30 H11        -4.3199   -1.1581   -1.1393 H         1 <0>         0.1383
     31 H12        -1.9078   -1.2087   -0.6590 H         1 <0>         0.1360
@<TRIPOS>BOND
     1    1    2 1
     2    1   20 1
     3    1   21 1
     4    1   22 1
     5    2    3 1
     6    2   23 1
     7    2   24 1
     8    3    7 1
     9    3    4 2
    10    4    5 1
    11    4   13 1
    12    5    6 2
    13    6   10 1
    14    6    7 1
    15    7    8 1
    16    8    9 2
    17    9   10 1
    18    9   11 1
    19   11   12 1
    20   12   25 1
    21   12   26 1
    22   12   27 1
    23   13   18 ar
    24   13   14 ar
    25   14   15 ar
    26   14   28 1
    27   15   16 ar
    28   15   29 1
    29   16   17 ar
    30   16   19 1
    31   17   18 ar
    32   17   30 1
    33   18   31 1
@<TRIPOS>MOLECULE
ZINC61696624
   30    32     0     0     0
SMALL
USER_CHARGES

@<TRIPOS>ATOM
      1 C1          0.6955    0.5389    0.2642 C.3       1 <0>        -0.2011
      2 C2          0.4547   -0.9475    0.2055 C.2       1 <0>         0.3918
      3 O1          1.3947   -1.7143    0.1928 O.2       1 <0>        -0.4417
      4 C3         -0.9170   -1.4675    0.1637 C.ar      1 <0>        -0.1244
      5 C4         -2.0041   -0.5832    0.1724 C.ar      1 <0>        -0.0700
      6 C5         -3.2788   -1.0708    0.1335 C.ar      1 <0>        -0.0527
      7 C6         -3.5000   -2.4456    0.0855 C.ar      1 <0>        -0.1072
      8 C7         -2.4219   -3.3290    0.0770 C.ar      1 <0>        -0.0399
      9 C8         -1.1431   -2.8491    0.1091 C.ar      1 <0>        -0.0465
     10 Br1        -2.7295   -5.1937    0.0131 Br        1 <0>        -0.0145
     11 S1         -5.1472   -3.0691    0.0359 S.3       1 <0>         0.1767
     12 C9         -5.3741   -3.5407   -1.6466 C.2       1 <0>         0.2041
     13 N1         -4.5090   -3.3338   -2.6068 N.2       1 <0>        -0.4677
     14 C10        -5.0187   -3.8282   -3.7675 C.ar      1 <0>         0.0317
     15 C11        -4.5473   -3.8850   -5.0801 C.ar      1 <0>        -0.0617
     16 C12        -5.3220   -4.4664   -6.0597 C.ar      1 <0>        -0.1159
     17 C13        -6.5659   -4.9943   -5.7491 C.ar      1 <0>        -0.0912
     18 C14        -7.0440   -4.9447   -4.4552 C.ar      1 <0>        -0.0905
     19 C15        -6.2779   -4.3641   -3.4576 C.ar      1 <0>         0.0112
     20 O2         -6.4591   -4.1712   -2.1309 O.3       1 <0>        -0.1901
     21 H1          1.7679    0.7325    0.2890 H         1 <0>         0.0906
     22 H2          0.2612    1.0125   -0.6163 H         1 <0>         0.0979
     23 H3          0.2317    0.9470    1.1622 H         1 <0>         0.0982
     24 H4         -1.8339    0.4826    0.2103 H         1 <0>         0.1513
     25 H5         -4.1170   -0.3898    0.1402 H         1 <0>         0.1532
     26 H6         -0.3080   -3.5339    0.0973 H         1 <0>         0.1523
     27 H7         -3.5793   -3.4745   -5.3268 H         1 <0>         0.1359
     28 H8         -4.9584   -4.5110   -7.0756 H         1 <0>         0.1395
     29 H9         -7.1651   -5.4471   -6.5252 H         1 <0>         0.1431
     30 H10        -8.0141   -5.3577   -4.2210 H         1 <0>         0.1376
@<TRIPOS>BOND
     1    1    2 1
     2    1   21 1
     3    1   22 1
     4    1   23 1
     5    2    3 2
     6    2    4 1
     7    4    9 ar
     8    4    5 ar
     9    5    6 ar
    10    5   24 1
    11    6    7 ar
    12    6   25 1
    13    7    8 ar
    14    7   11 1
    15    8    9 ar
    16    8   10 1
    17    9   26 1
    18   11   12 1
    19   12   20 1
    20   12   13 2
    21   13   14 1
    22   14   19 ar
    23   14   15 ar
    24   15   16 ar
    25   15   27 1
    26   16   17 ar
    27   16   28 1
    28   17   18 ar
    29   17   29 1
    30   18   19 ar
    31   18   30 1
    32   19   20 1
@<TRIPOS>MOLECULE
ZINC06242322
   31    34     0     0     0
SMALL
USER_CHARGES
9-bromo-8-phenyl-5-(2-thienyl)-2,6,7-triazabicyclo[4.3.0]nona-2,4,7,9-tetraene
@<TRIPOS>ATOM
      1 C1         -3.7676    8.9924    0.0868 C.ar      1 <0>        -0.1004
      2 C2         -4.2851    7.9110   -0.6031 C.ar      1 <0>        -0.1236
      3 C3         -3.6049    6.7101   -0.6196 C.ar      1 <0>        -0.0802
      4 C4         -2.3950    6.5884    0.0602 C.ar      1 <0>        -0.0346
      5 C5         -1.8809    7.6793    0.7579 C.ar      1 <0>        -0.0833
      6 C6         -2.5666    8.8772    0.7631 C.ar      1 <0>        -0.1200
      7 C7         -1.6593    5.2994    0.0465 C.2       1 <0>         0.1962
      8 C8         -0.2691    5.1546    0.0328 C.2       1 <0>        -0.2355
      9 C9          0.0108    3.7958    0.0229 C.2       1 <0>         0.3069
     10 N1          1.1642    3.1128    0.0081 N.2       1 <0>        -0.4627
     11 C10         1.1805    1.7984    0.0004 C.2       1 <0>         0.1972
     12 C11        -0.0126    1.0758    0.0080 C.2       1 <0>        -0.2112
     13 C12        -1.2160    1.7607    0.0173 C.2       1 <0>         0.2961
     14 N2         -1.1931    3.1370    0.0304 N.pl3     1 <0>        -0.3075
     15 N3         -2.2099    4.0980    0.0450 N.2       1 <0>        -0.2899
     16 C13        -2.4910    1.0333    0.0193 C.2       1 <0>        -0.1852
     17 C14        -2.7184   -0.3296    0.1066 C.2       1 <0>        -0.0903
     18 C15        -4.0173   -0.7778    0.0887 C.2       1 <0>        -0.1720
     19 C16        -5.0308    0.1227   -0.0132 C.2       1 <0>        -0.1642
     20 S1         -4.1537    1.6759   -0.0823 S.3       1 <0>         0.1589
     21 Br1         1.0000    6.5566    0.0297 Br        1 <0>         0.0119
     22 H1         -4.3031    9.9302    0.0971 H         1 <0>         0.1271
     23 H2         -5.2234    8.0063   -1.1295 H         1 <0>         0.1287
     24 H3         -4.0097    5.8665   -1.1589 H         1 <0>         0.1272
     25 H4         -0.9456    7.5891    1.2902 H         1 <0>         0.1332
     26 H5         -2.1666    9.7249    1.2995 H         1 <0>         0.1303
     27 H6          2.1247    1.2742   -0.0114 H         1 <0>         0.1909
     28 H7          0.0021   -0.0041    0.0020 H         1 <0>         0.1737
     29 H8         -1.8948   -1.0236    0.1871 H         1 <0>         0.1448
     30 H9         -4.2308   -1.8345    0.1546 H         1 <0>         0.1441
     31 H10        -6.0956   -0.0558   -0.0406 H         1 <0>         0.1935
@<TRIPOS>BOND
     1    1    6 ar
     2    1    2 ar
     3    1   22 1
     4    2    3 ar
     5    2   23 1
     6    3    4 ar
     7    3   24 1
     8    4    5 ar
     9    4    7 1
    10    5    6 ar
    11    5   25 1
    12    6   26 1
    13    7   15 2
    14    7    8 1
    15    8    9 2
    16    8   21 1
    17    9   14 1
    18    9   10 1
    19   10   11 2
    20   11   12 1
    21   11   27 1
    22   12   13 2
    23   12   28 1
    24   13   14 1
    25   13   16 1
    26   14   15 1
    27   16   20 1
    28   16   17 2
    29   17   18 1
    30   17   29 1
    31   18   19 2
    32   18   30 1
    33   19   20 1
    34   19   31 1
@<TRIPOS>MOLECULE
ZINC23862348
   32    33     0     0     0
SMALL
USER_CHARGES
(2,3-dimethylphenyl) 2-bromobenzenesulfonate
@<TRIPOS>ATOM
      1 C1         -1.8337    6.5708   -0.2699 C.3       1 <0>        -0.1198
      2 C2         -0.9931    5.5292   -0.9623 C.ar      1 <0>        -0.0694
      3 C3          0.0221    5.9173   -1.8174 C.ar      1 <0>        -0.0947
      4 C4          0.7947    4.9642   -2.4544 C.ar      1 <0>        -0.1026
      5 C5          0.5544    3.6210   -2.2378 C.ar      1 <0>        -0.1305
      6 C6         -0.4629    3.2290   -1.3802 C.ar      1 <0>         0.0638
      7 C7         -1.2407    4.1876   -0.7464 C.ar      1 <0>        -0.0509
      8 C8         -2.3512    3.7652    0.1806 C.3       1 <0>        -0.1256
      9 O1         -0.7012    1.9084   -1.1654 O.3       1 <0>        -0.6556
     10 S1         -1.6173    1.2686   -2.1988 S.o2      1 <0>         2.6625
     11 O2         -1.9579   -0.0172   -1.6988 O.2       1 <0>        -0.9178
     12 O3         -2.5984    2.2417   -2.5297 O.2       1 <0>        -0.9229
     13 C9         -0.6583    1.0054   -3.6533 C.ar      1 <0>        -0.6697
     14 C10         0.7048    0.7974   -3.5545 C.ar      1 <0>        -0.0326
     15 C11         1.4564    0.5867   -4.6951 C.ar      1 <0>        -0.1195
     16 C12         0.8470    0.5934   -5.9362 C.ar      1 <0>        -0.0570
     17 C13        -0.5147    0.8065   -6.0364 C.ar      1 <0>        -0.1045
     18 C14        -1.2683    1.0127   -4.8946 C.ar      1 <0>        -0.0005
     19 Br1        -3.1316    1.3049   -5.0311 Br        1 <0>        -0.0073
     20 H1         -1.4900    7.5737   -0.5633 H         1 <0>         0.0722
     21 H2         -1.7376    6.4545    0.8197 H         1 <0>         0.0766
     22 H3         -2.8870    6.4445   -0.5607 H         1 <0>         0.0789
     23 H4          0.2114    6.9668   -1.9880 H         1 <0>         0.1364
     24 H5          1.5869    5.2699   -3.1217 H         1 <0>         0.1389
     25 H6          1.1585    2.8767   -2.7354 H         1 <0>         0.1365
     26 H7         -2.3943    2.6669    0.2246 H         1 <0>         0.0595
     27 H8         -3.3093    4.1551   -0.1935 H         1 <0>         0.0906
     28 H9         -2.1605    4.1653    1.1874 H         1 <0>         0.0857
     29 H10         1.1819    0.7962   -2.5856 H         1 <0>         0.1443
     30 H11         2.5207    0.4205   -4.6172 H         1 <0>         0.1439
     31 H12         1.4353    0.4324   -6.8274 H         1 <0>         0.1446
     32 H13        -0.9906    0.8124   -7.0059 H         1 <0>         0.1466
@<TRIPOS>BOND
     1    1    2 1
     2    1   20 1
     3    1   21 1
     4    1   22 1
     5    2    7 ar
     6    2    3 ar
     7    3    4 ar
     8    3   23 1
     9    4    5 ar
    10    4   24 1
    11    5    6 ar
    12    5   25 1
    13    6    7 ar
    14    6    9 1
    15    7    8 1
    16    8   26 1
    17    8   27 1
    18    8   28 1
    19    9   10 1
    20   10   11 2
    21   10   12 2
    22   10   13 1
    23   13   18 ar
    24   13   14 ar
    25   14   15 ar
    26   14   29 1
    27   15   16 ar
    28   15   30 1
    29   16   17 ar
    30   16   31 1
    31   17   18 ar
    32   17   32 1
    33   18   19 1
@<TRIPOS>MOLECULE
ZINC41105647
   42    43     0     0     0
SMALL
USER_CHARGES

@<TRIPOS>ATOM
      1 C1          0.1125    1.6954    0.1013 C.3       1 <0>        -0.1455
      2 C2          0.1308    0.1673    0.1744 C.3       1 <0>        -0.0324
      3 C3          0.9228   -0.2749    1.4066 C.3       1 <0>        -0.1437
      4 C4         -1.3035   -0.3557    0.2754 C.3       1 <0>        -0.1482
      5 C5          0.7815   -0.3873   -1.0666 C.ar      1 <0>        -0.0723
      6 C6          0.0701   -1.2270   -1.9036 C.ar      1 <0>        -0.0624
      7 C7          0.6662   -1.7354   -3.0420 C.ar      1 <0>        -0.1047
      8 C8          1.9750   -1.4041   -3.3441 C.ar      1 <0>        -0.0086
      9 C9          2.6862   -0.5641   -2.5065 C.ar      1 <0>        -0.6514
     10 C10         2.0874   -0.0518   -1.3708 C.ar      1 <0>        -0.0132
     11 S1          4.3534   -0.1422   -2.8903 S.o2      1 <0>         2.6800
     12 O1          4.3839    0.1730   -4.2756 O.2       1 <0>        -0.9352
     13 O2          4.7809    0.7733   -1.8911 O.2       1 <0>        -0.9507
     14 N1          5.2623   -1.5128   -2.6967 N.pl3     1 <0>        -0.9878
     15 C11         5.7166   -1.9274   -1.3623 C.3       1 <0>         0.1211
     16 C12         5.2854   -3.3778   -1.1233 C.3       1 <0>        -0.1360
     17 C13         5.8048   -4.2549   -2.2648 C.3       1 <0>        -0.1167
     18 C14         5.1997   -3.7831   -3.5889 C.3       1 <0>        -0.1415
     19 C15         5.6248   -2.3406   -3.8551 C.3       1 <0>         0.1097
     20 Br1         2.7915   -2.0999   -4.9013 Br        1 <0>        -0.0172
     21 H1          1.1343    2.0680    0.0293 H         1 <0>         0.0610
     22 H2         -0.4517    2.0104   -0.7765 H         1 <0>         0.0593
     23 H3         -0.3581    2.0965    0.9989 H         1 <0>         0.0661
     24 H4          0.4521    0.1262    2.3042 H         1 <0>         0.0657
     25 H5          0.9358   -1.3636    1.4587 H         1 <0>         0.0587
     26 H6          1.9446    0.0977    1.3346 H         1 <0>         0.0605
     27 H7         -1.8677   -0.0407   -0.6024 H         1 <0>         0.0608
     28 H8         -1.2905   -1.4443    0.3275 H         1 <0>         0.0606
     29 H9         -1.7741    0.0455    1.1730 H         1 <0>         0.0653
     30 H10        -0.9515   -1.4859   -1.6675 H         1 <0>         0.1451
     31 H11         0.1106   -2.3916   -3.6955 H         1 <0>         0.1427
     32 H12         2.6412    0.6077   -0.7191 H         1 <0>         0.1498
     33 H13         6.8028   -1.8554   -1.3074 H         1 <0>         0.0796
     34 H14         5.2669   -1.2832   -0.6067 H         1 <0>         0.0852
     35 H15         5.6984   -3.7290   -0.1777 H         1 <0>         0.0766
     36 H16         4.1973   -3.4328   -1.0884 H         1 <0>         0.0653
     37 H17         6.8911   -4.1801   -2.3148 H         1 <0>         0.0658
     38 H18         5.5203   -5.2916   -2.0845 H         1 <0>         0.0652
     39 H19         5.5517   -4.4228   -4.3982 H         1 <0>         0.0761
     40 H20         4.1124   -3.8343   -3.5308 H         1 <0>         0.0721
     41 H21         5.1146   -1.9689   -4.7438 H         1 <0>         0.0992
     42 H22         6.7034   -2.3030   -4.0080 H         1 <0>         0.0758
@<TRIPOS>BOND
     1    1    2 1
     2    1   21 1
     3    1   22 1
     4    1   23 1
     5    2    3 1
     6    2    4 1
     7    2    5 1
     8    3   24 1
     9    3   25 1
    10    3   26 1
    11    4   27 1
    12    4   28 1
    13    4   29 1
    14    5   10 ar
    15    5    6 ar
    16    6    7 ar
    17    6   30 1
    18    7    8 ar
    19    7   31 1
    20    8    9 ar
    21    8   20 1
    22    9   10 ar
    23    9   11 1
    24   10   32 1
    25   11   12 2
    26   11   13 2
    27   11   14 1
    28   14   19 1
    29   14   15 1
    30   15   16 1
    31   15   33 1
    32   15   34 1
    33   16   17 1
    34   16   35 1
    35   16   36 1
    36   17   18 1
    37   17   37 1
    38   17   38 1
    39   18   19 1
    40   18   39 1
    41   18   40 1
    42   19   41 1
    43   19   42 1
@<TRIPOS>MOLECULE
ZINC12412094
   35    37     0     0     0
SMALL
USER_CHARGES

@<TRIPOS>ATOM
      1 C1         -0.0187    1.5258    0.0104 C.3       1 <0>        -0.1775
      2 C2          0.0021   -0.0041    0.0020 C.3       1 <0>         0.0827
      3 N1          0.7106   -0.4894    1.1889 N.pl3     1 <0>        -0.5031
      4 C3          2.0777   -0.6958    1.1405 C.ar      1 <0>         0.1350
      5 C4          2.9345   -0.4931    0.0448 C.ar      1 <0>        -0.1095
      6 C5          4.2827   -0.7444    0.1467 C.ar      1 <0>         0.0045
      7 C6          4.8405   -1.2038    1.3290 C.ar      1 <0>        -0.1046
      8 C7          4.0205   -1.4118    2.4242 C.ar      1 <0>        -0.0218
      9 C8          2.6726   -1.1611    2.3222 C.ar      1 <0>        -0.1695
     10 S1          1.3060   -1.2916    3.4499 S.3       1 <0>         0.1679
     11 C9          0.0194   -0.7325    2.3457 C.2       1 <0>         0.3060
     12 C10        -1.3380   -0.5840    2.5958 C.2       1 <0>        -0.3676
     13 C11        -2.0614   -0.8240    3.7801 C.2       1 <0>         0.5592
     14 O1         -1.5217   -1.2233    4.7999 O.2       1 <0>        -0.4861
     15 N2         -3.3636   -0.5894    3.7191 N.am      1 <0>        -0.5164
     16 C12        -3.9278   -0.1490    2.5786 C.2       1 <0>         0.2230
     17 S2         -5.5759    0.2130    2.2894 S.2       1 <0>        -0.3996
     18 S3         -2.6380   -0.0296    1.5059 S.3       1 <0>         0.1922
     19 C13        -4.1976   -0.8115    4.9029 C.3       1 <0>         0.1180
     20 C14        -4.2608    0.4547    5.7176 C.2       1 <0>        -0.1868
     21 C15        -5.4215    0.9770    6.0274 C.2       1 <0>        -0.1428
     22 Cl1         5.3048   -0.4815   -1.2317 Cl        1 <0>        -0.0422
     23 H1          1.0039    1.9031    0.0027 H         1 <0>         0.0683
     24 H2         -0.5459    1.8868   -0.8726 H         1 <0>         0.0911
     25 H3         -0.5289    1.8773    0.9072 H         1 <0>         0.0706
     26 H4         -1.0205   -0.3814    0.0098 H         1 <0>         0.0996
     27 H5          0.5123   -0.3556   -0.8948 H         1 <0>         0.1073
     28 H6          2.5284   -0.1356   -0.8899 H         1 <0>         0.1464
     29 H7          5.9009   -1.3973    1.3948 H         1 <0>         0.1565
     30 H8          4.4371   -1.7700    3.3540 H         1 <0>         0.1547
     31 H9         -5.2032   -1.0936    4.5912 H         1 <0>         0.1133
     32 H10        -3.7667   -1.6106    5.5062 H         1 <0>         0.1085
     33 H11        -3.3491    0.9315    6.0461 H         1 <0>         0.1115
     34 H12        -5.4668    1.8845    6.6112 H         1 <0>         0.1047
     35 H13        -6.3332    0.5002    5.6988 H         1 <0>         0.1069
@<TRIPOS>BOND
     1    1    2 1
     2    1   23 1
     3    1   24 1
     4    1   25 1
     5    2    3 1
     6    2   26 1
     7    2   27 1
     8    3   11 1
     9    3    4 1
    10    4    9 ar
    11    4    5 ar
    12    5    6 ar
    13    5   28 1
    14    6    7 ar
    15    6   22 1
    16    7    8 ar
    17    7   29 1
    18    8    9 ar
    19    8   30 1
    20    9   10 1
    21   10   11 1
    22   11   12 2
    23   12   18 1
    24   12   13 1
    25   13   14 2
    26   13   15 am
    27   15   16 1
    28   15   19 1
    29   16   17 2
    30   16   18 1
    31   19   20 1
    32   19   31 1
    33   19   32 1
    34   20   21 2
    35   20   33 1
    36   21   34 1
    37   21   35 1
@<TRIPOS>MOLECULE
ZINC13563737
   33    34     0     0     0
SMALL
USER_CHARGES

@<TRIPOS>ATOM
      1 C1         -0.4889    1.0483   -0.6966 C.3       1 <0>        -0.1044
      2 C2         -0.9387   -0.3139   -0.2348 C.2       1 <0>        -0.0881
      3 C3         -1.9979   -0.9153   -0.8169 C.2       1 <0>        -0.1298
      4 S1         -2.1125   -2.4600    0.0681 S.3       1 <0>         0.0650
      5 C4         -0.7346   -2.2298    1.1791 C.2       1 <0>         0.0655
      6 C5         -0.2619   -0.9668    0.7930 C.2       1 <0>        -0.0628
      7 C6          0.8701   -0.3690    1.4346 C.1       1 <0>         0.2687
      8 N1          1.7681    0.1053    1.9437 N.1       1 <0>        -0.4064
      9 N2         -0.2662   -3.0577    2.1373 N.2       1 <0>        -0.4227
     10 C7          0.0097   -4.3030    1.8480 C.2       1 <0>         0.2497
     11 C8         -0.0108   -4.7540    0.4508 C.ar      1 <0>        -0.1487
     12 C9          0.1809   -3.8359   -0.5885 C.ar      1 <0>        -0.0611
     13 C10         0.1604   -4.2666   -1.8978 C.ar      1 <0>        -0.0346
     14 C11        -0.0494   -5.6056   -2.1908 C.ar      1 <0>        -0.0566
     15 C12        -0.2406   -6.5228   -1.1744 C.ar      1 <0>        -0.0554
     16 C13        -0.2170   -6.1094    0.1492 C.ar      1 <0>         0.1636
     17 O1         -0.3982   -7.0104    1.1483 O.3       1 <0>        -0.3217
     18 C14        -1.7296   -7.1739    1.6409 C.3       1 <0>         0.0312
     19 Cl1        -0.5028   -8.1961   -1.5551 Cl        1 <0>        -0.0304
     20 Cl2         0.3976   -3.1272   -3.1859 Cl        1 <0>        -0.0390
     21 C15        -2.8686   -0.4071   -1.9370 C.3       1 <0>        -0.0732
     22 H1          0.2427    0.9373   -1.4969 H         1 <0>         0.0777
     23 H2         -1.3479    1.6091   -1.0648 H         1 <0>         0.0786
     24 H3         -0.0361    1.5836    0.1379 H         1 <0>         0.0658
     25 H4          0.2525   -4.9996    2.6368 H         1 <0>         0.1945
     26 H5          0.3443   -2.7920   -0.3649 H         1 <0>         0.1512
     27 H6         -0.0639   -5.9339   -3.2196 H         1 <0>         0.1566
     28 H7         -2.1225   -6.2065    1.9538 H         1 <0>         0.0515
     29 H8         -2.3607   -7.5848    0.8529 H         1 <0>         0.0566
     30 H9         -1.7210   -7.8550    2.4919 H         1 <0>         0.1081
     31 H10        -2.4521   -0.7237   -2.8932 H         1 <0>         0.0854
     32 H11        -3.8748   -0.8115   -1.8272 H         1 <0>         0.0777
     33 H12        -2.9086    0.6816   -1.9008 H         1 <0>         0.0876
@<TRIPOS>BOND
     1    1    2 1
     2    1   22 1
     3    1   23 1
     4    1   24 1
     5    2    6 1
     6    2    3 2
     7    3    4 1
     8    3   21 1
     9    4    5 1
    10    5    6 2
    11    5    9 1
    12    6    7 1
    13    7    8 3
    14    9   10 2
    15   10   11 1
    16   10   25 1
    17   11   16 ar
    18   11   12 ar
    19   12   13 ar
    20   12   26 1
    21   13   14 ar
    22   13   20 1
    23   14   15 ar
    24   14   27 1
    25   15   16 ar
    26   15   19 1
    27   16   17 1
    28   17   18 1
    29   18   28 1
    30   18   29 1
    31   18   30 1
    32   21   31 1
    33   21   32 1
    34   21   33 1
@<TRIPOS>MOLECULE
ZINC08782842
   38    40     0     0     0
SMALL
USER_CHARGES
6-methyl-2-phenyl-7-pyrrolidin-1-yl-4-thioxo-3H-1,3-diazepin-5-one
@<TRIPOS>ATOM
      1 C1          0.0565    4.0898    0.1791 C.3       1 <0>        -0.0875
      2 C2         -0.6567    3.3220    1.2620 C.2       1 <0>        -0.2160
      3 C3         -1.0032    4.0432    2.4111 C.2       1 <0>         0.3976
      4 O1         -0.6975    5.2246    2.4303 O.2       1 <0>        -0.3908
      5 C4         -1.7006    3.5140    3.6122 C.2       1 <0>         0.2344
      6 S1         -1.9899    4.6284    4.8792 S.2       1 <0>        -0.3711
      7 N1         -2.1311    2.2501    3.8128 N.pl3     1 <0>        -0.5746
      8 H1         -2.5691    2.0855    4.6625 H         1 <0>         0.4287
      9 C5         -2.0329    1.1717    2.9792 C.2       1 <0>         0.4741
     10 N2         -1.5056    1.0643    1.7792 N.2       1 <0>        -0.5580
     11 C6         -0.9044    1.9727    1.0053 C.2       1 <0>         0.3526
     12 N3         -0.4630    1.5122   -0.2127 N.pl3     1 <0>        -0.4729
     13 C7          0.4229    0.3317   -0.0462 C.3       1 <0>         0.0370
     14 C8          0.3816   -0.3420   -1.4408 C.3       1 <0>        -0.1216
     15 C9         -1.0870   -0.1396   -1.8792 C.3       1 <0>        -0.1276
     16 C10        -1.5943    1.0529   -1.0473 C.3       1 <0>         0.0428
     17 C11        -2.6128   -0.0762    3.5129 C.ar      1 <0>        -0.0958
     18 C12        -2.4508   -1.2781    2.8193 C.ar      1 <0>        -0.0427
     19 C13        -2.9914   -2.4412    3.3264 C.ar      1 <0>        -0.1248
     20 C14        -3.7023   -2.4177    4.5135 C.ar      1 <0>        -0.0807
     21 C15        -3.8708   -1.2300    5.2034 C.ar      1 <0>        -0.1164
     22 C16        -3.3313   -0.0601    4.7109 C.ar      1 <0>        -0.0932
     23 H2         -0.6697    4.4496   -0.5497 H         1 <0>         0.0709
     24 H3          0.5799    4.9383    0.6198 H         1 <0>         0.0717
     25 H4          0.7753    3.4369   -0.3160 H         1 <0>         0.0863
     26 H5          1.4377    0.6439    0.2003 H         1 <0>         0.0853
     27 H6          0.0297   -0.3397    0.7172 H         1 <0>         0.0672
     28 H7          0.6183   -1.4032   -1.3637 H         1 <0>         0.0774
     29 H8          1.0623    0.1570   -2.1305 H         1 <0>         0.0782
     30 H9         -1.6739   -1.0313   -1.6591 H         1 <0>         0.0715
     31 H10        -1.1356    0.0933   -2.9429 H         1 <0>         0.0768
     32 H11        -2.4209    0.7368   -0.4109 H         1 <0>         0.0595
     33 H12        -1.9202    1.8575   -1.7065 H         1 <0>         0.0846
     34 H13        -1.9004   -1.2971    1.8903 H         1 <0>         0.1432
     35 H14        -2.8638   -3.3718    2.7933 H         1 <0>         0.1359
     36 H15        -4.1273   -3.3307    4.9036 H         1 <0>         0.1341
     37 H16        -4.4265   -1.2190    6.1294 H         1 <0>         0.1372
     38 H17        -3.4636    0.8662    5.2503 H         1 <0>         0.1266
@<TRIPOS>BOND
     1    1    2 1
     2    1   23 1
     3    1   24 1
     4    1   25 1
     5    2   11 2
     6    2    3 1
     7    3    4 2
     8    3    5 1
     9    5    6 2
    10    5    7 1
    11    7    8 1
    12    7    9 1
    13    9   10 2
    14    9   17 1
    15   10   11 1
    16   11   12 1
    17   12   16 1
    18   12   13 1
    19   13   14 1
    20   13   26 1
    21   13   27 1
    22   14   15 1
    23   14   28 1
    24   14   29 1
    25   15   16 1
    26   15   30 1
    27   15   31 1
    28   16   32 1
    29   16   33 1
    30   17   22 ar
    31   17   18 ar
    32   18   19 ar
    33   18   34 1
    34   19   20 ar
    35   19   35 1
    36   20   21 ar
    37   20   36 1
    38   21   22 ar
    39   21   37 1
    40   22   38 1
@<TRIPOS>MOLECULE
ZINC35379483
   35    37     0     0     0
SMALL
USER_CHARGES

@<TRIPOS>ATOM
      1 C1         -0.2899   -4.2887    4.8994 C.3       1 <0>        -0.0764
      2 C2         -0.1875   -4.0475    3.4153 C.2       1 <0>        -0.0109
      3 C3         -1.2240   -3.8568    2.5852 C.2       1 <0>        -0.1723
      4 C4         -0.6417   -3.6641    1.2489 C.2       1 <0>        -0.2696
      5 C5          0.7096   -3.7613    1.4198 C.2       1 <0>         0.0886
      6 O1          0.9555   -3.9837    2.7146 O.3       1 <0>        -0.1714
      7 C6          1.7472   -3.6339    0.3343 C.3       1 <0>        -0.0871
      8 C7         -1.3650   -3.4178   -0.0110 C.2       1 <0>         0.4806
      9 O2         -0.7461   -3.1805   -1.0313 O.2       1 <0>        -0.4398
     10 C8         -2.8384   -3.4588   -0.0352 C.ar      1 <0>        -0.1944
     11 C9         -3.5725   -2.2701   -0.0994 C.ar      1 <0>        -0.0169
     12 C10        -4.9373   -2.3082   -0.1213 C.ar      1 <0>        -0.1343
     13 C11        -5.6065   -3.5294   -0.0808 C.ar      1 <0>         0.2092
     14 C12        -4.8877   -4.7178   -0.0172 C.ar      1 <0>        -0.1914
     15 C13        -3.5079   -4.6889    0.0001 C.ar      1 <0>         0.1670
     16 F1         -2.8059   -5.8419    0.0565 F         1 <0>        -0.1233
     17 N1         -6.9998   -3.5590   -0.1036 N.am      1 <0>        -0.6619
     18 C14        -7.6996   -2.4926   -0.5310 C.2       1 <0>         0.5227
     19 O3         -8.9117   -2.5324   -0.5309 O.2       1 <0>        -0.5153
     20 C15        -6.9967   -1.2507   -1.0089 C.3       1 <0>        -0.1405
     21 C16        -5.7255   -1.0252   -0.1901 C.3       1 <0>        -0.0766
     22 H1          0.7096   -4.4042    5.3185 H         1 <0>         0.0786
     23 H2         -0.7863   -3.4410    5.3718 H         1 <0>         0.0883
     24 H3         -0.8671   -5.1952    5.0812 H         1 <0>         0.0882
     25 H4         -2.2722   -3.8470    2.8453 H         1 <0>         0.1562
     26 H5          2.0488   -2.5907    0.2406 H         1 <0>         0.0940
     27 H6          2.6155   -4.2418    0.5885 H         1 <0>         0.0830
     28 H7          1.3276   -3.9772   -0.6114 H         1 <0>         0.1052
     29 H8         -3.0591   -1.3204   -0.1313 H         1 <0>         0.1451
     30 H9         -5.4087   -5.6633    0.0143 H         1 <0>         0.1494
     31 H10        -7.4688   -4.3552    0.1915 H         1 <0>         0.4152
     32 H11        -6.7346   -1.3650   -2.0607 H         1 <0>         0.1084
     33 H12        -7.6589   -0.3926   -0.8931 H         1 <0>         0.1150
     34 H13        -5.9942   -0.7094    0.8179 H         1 <0>         0.0891
     35 H14        -5.1205   -0.2521   -0.6638 H         1 <0>         0.0982
@<TRIPOS>BOND
     1    1    2 1
     2    1   22 1
     3    1   23 1
     4    1   24 1
     5    2    6 1
     6    2    3 2
     7    3    4 1
     8    3   25 1
     9    4    5 2
    10    4    8 1
    11    5    6 1
    12    5    7 1
    13    7   26 1
    14    7   27 1
    15    7   28 1
    16    8    9 2
    17    8   10 1
    18   10   15 ar
    19   10   11 ar
    20   11   12 ar
    21   11   29 1
    22   12   21 1
    23   12   13 ar
    24   13   14 ar
    25   13   17 1
    26   14   15 ar
    27   14   30 1
    28   15   16 1
    29   17   18 am
    30   17   31 1
    31   18   19 2
    32   18   20 1
    33   20   21 1
    34   20   32 1
    35   20   33 1
    36   21   34 1
    37   21   35 1
@<TRIPOS>MOLECULE
ZINC42772768
   35    38     0     0     0
SMALL
USER_CHARGES

@<TRIPOS>ATOM
      1 C1         -0.0097    1.5201    0.0063 C.3       1 <0>        -0.1586
      2 C2          0.0139   -0.0097    0.0012 C.3       1 <0>         0.2384
      3 H1         -1.0060   -0.3944    0.0049 H         1 <0>         0.0889
      4 C3          0.7517   -0.5116   -1.2386 C.2       1 <0>        -0.1228
      5 C4          0.2107   -0.4600   -2.5223 C.2       1 <0>        -0.1413
      6 C5          0.9237   -0.9196   -3.5759 C.2       1 <0>        -0.1748
      7 S1          2.4331   -1.4630   -2.7898 S.3       1 <0>         0.0269
      8 C6          1.9999   -1.0408   -1.1226 C.2       1 <0>        -0.1368
      9 C7          2.8076   -1.2240    0.1210 C.3       1 <0>        -0.0591
     10 C8          2.1988   -0.3593    1.2356 C.3       1 <0>         0.1520
     11 N1          0.7350   -0.5001    1.1835 N.pl3     1 <0>        -0.6250
     12 C9          0.0376   -1.0948    2.2466 C.2       1 <0>         0.3193
     13 C10        -0.3308   -2.3901    2.3234 C.2       1 <0>        -0.0216
     14 N2         -0.9992   -2.5673    3.5382 N.pl3     1 <0>        -0.4268
     15 C11        -1.6148   -3.5851    4.2332 C.2       1 <0>         0.0322
     16 C12        -2.1690   -3.3603    5.4238 C.2       1 <0>        -0.1763
     17 S2         -1.8463   -1.6192    5.6573 S.3       1 <0>         0.1304
     18 C13        -0.9877   -1.3317    4.1276 C.2       1 <0>         0.1912
     19 N3         -0.3723   -0.4725    3.3650 N.2       1 <0>        -0.4529
     20 C14        -0.0698   -3.4529    1.2875 C.3       1 <0>         0.1622
     21 O1         -1.1000   -3.4168    0.2979 O.3       1 <0>        -0.5618
     22 H2          1.0123    1.8993    0.0026 H         1 <0>         0.0582
     23 H3         -0.5333    1.8784   -0.8800 H         1 <0>         0.0630
     24 H4         -0.5247    1.8726    0.8999 H         1 <0>         0.0642
     25 H5         -0.7780   -0.0534   -2.6756 H         1 <0>         0.1301
     26 H6          0.6512   -0.9506   -4.6205 H         1 <0>         0.1851
     27 H7          2.7872   -2.2723    0.4191 H         1 <0>         0.0815
     28 H8          3.8363   -0.9135   -0.0621 H         1 <0>         0.0889
     29 H9          2.5658   -0.6971    2.2047 H         1 <0>         0.0809
     30 H10         2.4728    0.6845    1.0819 H         1 <0>         0.0680
     31 H11        -1.6488   -4.5771    3.8076 H         1 <0>         0.1719
     32 H12        -2.6803   -4.0513    6.0776 H         1 <0>         0.2186
     33 H13         0.8950   -3.2701    0.8144 H         1 <0>         0.0738
     34 H14        -0.0599   -4.4322    1.7661 H         1 <0>         0.0491
     35 H15        -0.9961   -4.0756   -0.4023 H         1 <0>         0.3830
@<TRIPOS>BOND
     1    1    2 1
     2    1   22 1
     3    1   23 1
     4    1   24 1
     5    2    3 1
     6    2   11 1
     7    2    4 1
     8    4    8 2
     9    4    5 1
    10    5    6 2
    11    5   25 1
    12    6    7 1
    13    6   26 1
    14    7    8 1
    15    8    9 1
    16    9   10 1
    17    9   27 1
    18    9   28 1
    19   10   11 1
    20   10   29 1
    21   10   30 1
    22   11   12 1
    23   12   19 1
    24   12   13 2
    25   13   14 1
    26   13   20 1
    27   14   18 1
    28   14   15 1
    29   15   16 2
    30   15   31 1
    31   16   17 1
    32   16   32 1
    33   17   18 1
    34   18   19 2
    35   20   21 1
    36   20   33 1
    37   20   34 1
    38   21   35 1
@<TRIPOS>MOLECULE
ZINC53073706
   48    50     0     0     0
SMALL
USER_CHARGES

@<TRIPOS>ATOM
      1 C1          0.5549    1.9052    0.1019 C.3       1 <0>        -0.1084
      2 C2          2.0331    2.3568    0.2401 C.3       1 <0>        -0.1346
      3 C3          2.4607    2.0873    1.6334 C.3       1 <0>        -0.1141
      4 C4          3.0549    0.6683    1.8826 C.3       1 <0>        -0.0980
      5 C5          2.2975   -0.4670    1.1338 C.3       1 <0>        -0.0805
      6 C6          0.8176   -0.3243    1.1732 C.3       1 <0>        -0.1001
      7 C7          0.3435    0.5251   -0.0341 C.3       1 <0>        -0.1208
      8 C8          2.6877   -1.7792    1.8745 C.3       1 <0>        -0.1665
      9 C9          3.4064   -2.5858    0.8195 C.2       1 <0>         0.5251
     10 O1          3.8646   -3.6986    0.9744 O.2       1 <0>        -0.4699
     11 N1          3.4560   -1.8782   -0.3126 N.am      1 <0>        -0.5633
     12 C10         2.8723   -0.6692   -0.2380 C.2       1 <0>         0.5416
     13 O2          2.8472    0.0962   -1.1783 O.2       1 <0>        -0.4568
     14 C11         4.0900   -2.3710   -1.5379 C.3       1 <0>         0.1691
     15 C12         4.9973   -3.5561   -1.2016 C.3       1 <0>        -0.1192
     16 C13         6.0763   -3.1082   -0.2137 C.3       1 <0>        -0.1159
     17 C14         6.9102   -1.9897   -0.8417 C.3       1 <0>        -0.1249
     18 C15         6.0029   -0.8045   -1.1780 C.3       1 <0>        -0.1145
     19 C16         4.9239   -1.2524   -2.1660 C.3       1 <0>        -0.1309
     20 C17         3.0110   -2.8189   -2.5258 C.3       1 <0>         0.0750
     21 O3          3.6294   -3.2995   -3.7211 O.3       1 <0>        -0.5605
     22 H1          0.0196    2.2977    0.9807 H         1 <0>         0.0527
     23 H2          0.1403    2.4481   -0.7634 H         1 <0>         0.0547
     24 H3          2.6543    1.8585   -0.4885 H         1 <0>         0.0976
     25 H4          2.0716    3.4380    0.0408 H         1 <0>         0.0567
     26 H5          3.2248    2.8123    1.9330 H         1 <0>         0.0598
     27 H6          1.6114    2.2051    2.3135 H         1 <0>         0.0613
     28 H7          4.0869    0.6693    1.5464 H         1 <0>         0.0644
     29 H8          3.0089    0.4652    2.9479 H         1 <0>         0.0821
     30 H9          0.3384   -1.3055    1.1217 H         1 <0>         0.0728
     31 H10         0.5064    0.1702    2.0967 H         1 <0>         0.0870
     32 H11        -0.7367    0.3178   -0.1561 H         1 <0>         0.0571
     33 H12         0.8134    0.1260   -0.9391 H         1 <0>         0.0707
     34 H13         3.3486   -1.5495    2.7080 H         1 <0>         0.1224
     35 H14         1.7910   -2.2911    2.2168 H         1 <0>         0.1229
     36 H15         4.4032   -4.3530   -0.7542 H         1 <0>         0.0908
     37 H16         5.4690   -3.9227   -2.1133 H         1 <0>         0.0812
     38 H17         5.6045   -2.7416    0.6980 H         1 <0>         0.0610
     39 H18         6.7226   -3.9526    0.0259 H         1 <0>         0.0649
     40 H19         7.6789   -1.6706   -0.1379 H         1 <0>         0.0603
     41 H20         7.3819   -2.3563   -1.7534 H         1 <0>         0.0641
     42 H21         5.5311   -0.4379   -0.2663 H         1 <0>         0.0505
     43 H22         6.5970   -0.0077   -1.6255 H         1 <0>         0.0658
     44 H23         5.3956   -1.6190   -3.0776 H         1 <0>         0.0848
     45 H24         4.2775   -0.4081   -2.4055 H         1 <0>         0.0955
     46 H25         2.4169   -3.6157   -2.0784 H         1 <0>         0.0476
     47 H26         2.3646   -1.9745   -2.7654 H         1 <0>         0.0541
     48 H27         3.0037   -3.6010   -4.3938 H         1 <0>         0.3851
@<TRIPOS>BOND
     1    1    7 1
     2    1    2 1
     3    1   22 1
     4    1   23 1
     5    2    3 1
     6    2   24 1
     7    2   25 1
     8    3    4 1
     9    3   26 1
    10    3   27 1
    11    4    5 1
    12    4   28 1
    13    4   29 1
    14    5   12 1
    15    5    6 1
    16    5    8 1
    17    6    7 1
    18    6   30 1
    19    6   31 1
    20    7   32 1
    21    7   33 1
    22    8    9 1
    23    8   34 1
    24    8   35 1
    25    9   10 2
    26    9   11 am
    27   11   12 am
    28   11   14 1
    29   12   13 2
    30   14   19 1
    31   14   15 1
    32   14   20 1
    33   15   16 1
    34   15   36 1
    35   15   37 1
    36   16   17 1
    37   16   38 1
    38   16   39 1
    39   17   18 1
    40   17   40 1
    41   17   41 1
    42   18   19 1
    43   18   42 1
    44   18   43 1
    45   19   44 1
    46   19   45 1
    47   20   21 1
    48   20   46 1
    49   20   47 1
    50   21   48 1
@<TRIPOS>MOLECULE
ZINC65331136
   37    40     0     0     0
SMALL
USER_CHARGES

@<TRIPOS>ATOM
      1 C1         -0.0167    1.3786    0.0096 C.ar      1 <0>        -0.1174
      2 C2          1.1696    2.0890    0.0021 C.ar      1 <0>        -0.0951
      3 C3          2.3773    1.4191   -0.0135 C.ar      1 <0>        -0.1046
      4 C4          2.3994    0.0308   -0.0212 C.ar      1 <0>         0.1466
      5 C5          1.2066   -0.6797   -0.0132 C.ar      1 <0>        -0.1419
      6 C6          0.0021   -0.0041    0.0020 C.ar      1 <0>        -0.0919
      7 N1          3.6233   -0.6519   -0.0375 N.pl3     1 <0>        -0.3201
      8 C7          3.8891   -1.8245    0.5734 C.2       1 <0>         0.3236
      9 C8          5.1966   -2.1410    0.3117 C.2       1 <0>        -0.2614
     10 C9          5.7304   -1.1345   -0.4791 C.2       1 <0>         0.0990
     11 N2          4.7930   -0.2415   -0.6981 N.2       1 <0>        -0.2778
     12 C10         5.8425   -3.3933    0.8461 C.3       1 <0>         0.0379
     13 H1          6.9030   -3.2132    1.0220 H         1 <0>         0.1138
     14 C11         5.1566   -3.7651    2.1640 C.3       1 <0>        -0.1323
     15 C12         3.6644   -3.6320    2.0635 C.2       1 <0>         0.5360
     16 O1          2.9646   -4.4330    2.6464 O.2       1 <0>        -0.5070
     17 N3          3.0746   -2.6509    1.3468 N.am      1 <0>        -0.6504
     18 C13         5.6760   -4.5141   -0.1476 C.ar      1 <0>        -0.1126
     19 C14         4.4102   -4.9234   -0.5223 C.ar      1 <0>        -0.0858
     20 C15         4.2572   -5.9513   -1.4337 C.ar      1 <0>        -0.1250
     21 C16         5.3700   -6.5713   -1.9715 C.ar      1 <0>        -0.0892
     22 C17         6.6364   -6.1634   -1.5987 C.ar      1 <0>        -0.1501
     23 C18         6.7910   -5.1302   -0.6897 C.ar      1 <0>         0.1079
     24 F1          8.0288   -4.7274   -0.3280 F         1 <0>        -0.1347
     25 H2         -0.9598    1.9047    0.0260 H         1 <0>         0.1334
     26 H3          1.1518    3.1689    0.0081 H         1 <0>         0.1365
     27 H4          3.3036    1.9745   -0.0201 H         1 <0>         0.1379
     28 H5          1.2206   -1.7596   -0.0195 H         1 <0>         0.1232
     29 H6         -0.9261   -0.5562    0.0079 H         1 <0>         0.1365
     30 H7          6.7422   -1.0945   -0.8546 H         1 <0>         0.1964
     31 H8          5.4062   -4.7954    2.4174 H         1 <0>         0.1173
     32 H9          5.5207   -3.1072    2.9531 H         1 <0>         0.1160
     33 H10         2.1131   -2.5249    1.3693 H         1 <0>         0.4140
     34 H11         3.5403   -4.4402   -0.1026 H         1 <0>         0.1207
     35 H12         3.2677   -6.2708   -1.7256 H         1 <0>         0.1286
     36 H13         5.2492   -7.3748   -2.6829 H         1 <0>         0.1341
     37 H14         7.5055   -6.6480   -2.0186 H         1 <0>         0.1379
@<TRIPOS>BOND
     1    1    6 ar
     2    1    2 ar
     3    1   25 1
     4    2    3 ar
     5    2   26 1
     6    3    4 ar
     7    3   27 1
     8    4    5 ar
     9    4    7 1
    10    5    6 ar
    11    5   28 1
    12    6   29 1
    13    7   11 1
    14    7    8 1
    15    8   17 1
    16    8    9 2
    17    9   10 1
    18    9   12 1
    19   10   11 2
    20   10   30 1
    21   12   13 1
    22   12   14 1
    23   12   18 1
    24   14   15 1
    25   14   31 1
    26   14   32 1
    27   15   16 2
    28   15   17 am
    29   17   33 1
    30   18   23 ar
    31   18   19 ar
    32   19   20 ar
    33   19   34 1
    34   20   21 ar
    35   20   35 1
    36   21   22 ar
    37   21   36 1
    38   22   23 ar
    39   22   37 1
    40   23   24 1
@<TRIPOS>MOLECULE
ZINC31561599
   37    39     0     0     0
SMALL
USER_CHARGES
(1S)-N-[4-(1H-pyrazol-3-yl)phenyl]cyclohex-3-ene-1-carboxamide
@<TRIPOS>ATOM
      1 C1          3.2579    0.0168   -5.5826 C.ar      1 <0>        -0.0713
      2 C2          2.7424    0.7355   -4.5249 C.ar      1 <0>        -0.1491
      3 C3          1.6133    0.2773   -3.8568 C.ar      1 <0>         0.1604
      4 C4          1.0044   -0.9084   -4.2496 C.ar      1 <0>        -0.1245
      5 C5          1.5129   -1.6272   -5.3107 C.ar      1 <0>        -0.0731
      6 C6          2.6455   -1.1698   -5.9819 C.ar      1 <0>        -0.0334
      7 C7          3.1987   -1.9453   -7.1197 C.2       1 <0>         0.1117
      8 C8          2.6839   -3.1543   -7.6268 C.2       1 <0>        -0.2660
      9 C9          3.4674   -3.5377   -8.6583 C.2       1 <0>         0.0482
     10 N1          4.4424   -2.6152   -8.8065 N.pl3     1 <0>        -0.4842
     11 H1          5.1996   -2.7371   -9.5950 H         1 <0>         0.4709
     12 N2          4.2541   -1.6220   -7.8369 N.2       1 <0>        -0.2759
     13 N3          1.0923    1.0078   -2.7838 N.am      1 <0>        -0.6871
     14 C10        -0.2369    1.0235   -2.5615 C.2       1 <0>         0.5176
     15 O1         -0.9893    0.4844   -3.3453 O.2       1 <0>        -0.5183
     16 C11        -0.7882    1.7109   -1.3390 C.3       1 <0>        -0.1049
     17 H2         -0.5027    2.7721   -1.3875 H         1 <0>         0.1025
     18 C12        -2.3146    1.5624   -1.3083 C.3       1 <0>        -0.1015
     19 C13        -2.8610    2.4158   -0.1616 C.3       1 <0>        -0.0962
     20 C14        -2.0992    2.1347    1.1003 C.2       1 <0>        -0.1505
     21 C15        -0.9483    1.5491    1.1340 C.2       1 <0>        -0.1596
     22 C16        -0.2132    1.0596   -0.0793 C.3       1 <0>        -0.0818
     23 H3          4.1354    0.3732   -6.1016 H         1 <0>         0.1322
     24 H4          3.2166    1.6550   -4.2151 H         1 <0>         0.1287
     25 H5          0.1297   -1.2651   -3.7259 H         1 <0>         0.1364
     26 H6          1.0369   -2.5466   -5.6182 H         1 <0>         0.1303
     27 H7          1.8167   -3.6812   -7.2568 H         1 <0>         0.1469
     28 H8          3.3371   -4.4259   -9.2588 H         1 <0>         0.1771
     29 H9          1.7674    1.5695   -2.1214 H         1 <0>         0.4345
     30 H10        -2.7356    1.9045   -2.2652 H         1 <0>         0.0769
     31 H11        -2.5771    0.5061   -1.1490 H         1 <0>         0.0724
     32 H12        -2.7573    3.4810   -0.4157 H         1 <0>         0.0767
     33 H13        -3.9232    2.1787   -0.0019 H         1 <0>         0.0784
     34 H14        -2.5783    2.4601    2.0355 H         1 <0>         0.1081
     35 H15        -0.4445    1.3815    2.0974 H         1 <0>         0.1095
     36 H16        -0.3197   -0.0329   -0.1502 H         1 <0>         0.0800
     37 H17         0.8517    1.3189    0.0141 H         1 <0>         0.0782
@<TRIPOS>BOND
     1    1    6 ar
     2    1    2 ar
     3    1   23 1
     4    2    3 ar
     5    2   24 1
     6    3    4 ar
     7    3   13 1
     8    4    5 ar
     9    4   25 1
    10    5    6 ar
    11    5   26 1
    12    6    7 1
    13    7   12 2
    14    7    8 1
    15    8    9 2
    16    8   27 1
    17    9   10 1
    18    9   28 1
    19   10   11 1
    20   10   12 1
    21   13   14 am
    22   13   29 1
    23   14   15 2
    24   14   16 1
    25   16   17 1
    26   16   22 1
    27   16   18 1
    28   18   19 1
    29   18   30 1
    30   18   31 1
    31   19   20 1
    32   19   32 1
    33   19   33 1
    34   20   21 2
    35   20   34 1
    36   21   22 1
    37   21   35 1
    38   22   36 1
    39   22   37 1
@<TRIPOS>MOLECULE
ZINC40290984
   36    38     0     0     0
SMALL
USER_CHARGES

@<TRIPOS>ATOM
      1 C1         -0.0106    1.4721    0.3731 C.3       1 <0>        -0.1272
      2 C2          0.0028   -0.0217    0.1741 C.ar      1 <0>         0.0056
      3 C3         -0.1281   -0.5754   -1.0885 C.ar      1 <0>         0.0264
      4 N1         -0.1145   -1.8851   -1.2430 N.ar      1 <0>        -0.1802
      5 N2          0.0175   -2.6972   -0.2589 N.ar      1 <0>        -0.2815
      6 C4          0.1506   -2.2765    0.9915 C.ar      1 <0>         0.3725
      7 C5          0.1539   -0.8941    1.2599 C.ar      1 <0>        -0.1641
      8 C6          0.3051   -0.3832    2.6352 C.2       1 <0>         0.4064
      9 S1          1.8531    0.0561    3.2198 S.2       1 <0>        -0.5052
     10 N3         -0.7753   -0.2621    3.4318 N.pl3     1 <0>        -0.7550
     11 N4          0.2906   -3.1886    2.0240 N.pl3     1 <0>        -0.5242
     12 C7          0.3227   -2.8462    3.4484 C.3       1 <0>         0.0789
     13 C8          0.4909   -4.1870    4.1817 C.3       1 <0>        -0.0813
     14 C9          0.5428   -5.2197    3.0783 C.ar      1 <0>        -0.1399
     15 C10         0.4158   -4.5700    1.8601 C.ar      1 <0>         0.1502
     16 C11         0.4308   -5.3242    0.6851 C.ar      1 <0>        -0.1304
     17 C12         0.5663   -6.6951    0.7406 C.ar      1 <0>        -0.0907
     18 C13         0.6880   -7.3337    1.9609 C.ar      1 <0>        -0.1400
     19 C14         0.6824   -6.5930    3.1286 C.ar      1 <0>        -0.0774
     20 C15        -0.2870    0.3211   -2.2893 C.3       1 <0>        -0.0982
     21 H1          1.0130    1.8468    0.3809 H         1 <0>         0.1006
     22 H2         -0.5633    1.9420   -0.4404 H         1 <0>         0.0931
     23 H3         -0.4911    1.7078    1.3226 H         1 <0>         0.0712
     24 H4         -1.6608   -0.4413    3.0785 H         1 <0>         0.4074
     25 H5         -0.6674    0.0041    4.3582 H         1 <0>         0.4279
     26 H6          1.1672   -2.1905    3.6607 H         1 <0>         0.1049
     27 H7         -0.6115   -2.3684    3.7435 H         1 <0>         0.0777
     28 H8          1.4190   -4.1941    4.7531 H         1 <0>         0.0961
     29 H9         -0.3610   -4.3720    4.8360 H         1 <0>         0.0926
     30 H10         0.3354   -4.8316   -0.2713 H         1 <0>         0.1473
     31 H11         0.5770   -7.2722   -0.1722 H         1 <0>         0.1300
     32 H12         0.7936   -8.4078    2.0017 H         1 <0>         0.1279
     33 H13         0.7769   -7.0903    4.0826 H         1 <0>         0.1262
     34 H14         0.6955    0.5619   -2.6955 H         1 <0>         0.0859
     35 H15        -0.8787   -0.1901   -3.0487 H         1 <0>         0.0848
     36 H16        -0.7926    1.2400   -1.9924 H         1 <0>         0.0818
@<TRIPOS>BOND
     1    1    2 1
     2    1   21 1
     3    1   22 1
     4    1   23 1
     5    2    7 ar
     6    2    3 ar
     7    3    4 ar
     8    3   20 1
     9    4    5 ar
    10    5    6 ar
    11    6    7 ar
    12    6   11 1
    13    7    8 1
    14    8    9 2
    15    8   10 1
    16   10   24 1
    17   10   25 1
    18   11   15 1
    19   11   12 1
    20   12   13 1
    21   12   26 1
    22   12   27 1
    23   13   14 1
    24   13   28 1
    25   13   29 1
    26   14   19 ar
    27   14   15 ar
    28   15   16 ar
    29   16   17 ar
    30   16   30 1
    31   17   18 ar
    32   17   31 1
    33   18   19 ar
    34   18   32 1
    35   19   33 1
    36   20   34 1
    37   20   35 1
    38   20   36 1
@<TRIPOS>MOLECULE
ZINC48602798
   35    36     0     0     0
SMALL
USER_CHARGES

@<TRIPOS>ATOM
      1 C1         -0.0184    1.5028    0.0103 C.3       1 <0>        -0.0759
      2 C2          0.0021   -0.0041    0.0020 C.2       1 <0>         0.0897
      3 C3          0.0080   -0.8161   -1.1354 C.2       1 <0>        -0.2737
      4 C4          0.0283   -2.1126   -0.7217 C.2       1 <0>         0.3050
      5 N1          0.0348   -2.1095    0.6308 N.pl3     1 <0>        -0.4918
      6 H1          0.0487   -2.8924    1.2034 H         1 <0>         0.4359
      7 N2          0.0230   -0.7758    1.0585 N.2       1 <0>        -0.2855
      8 N3          0.0398   -3.2397   -1.5433 N.am      1 <0>        -0.6497
      9 C5          0.0308   -3.0968   -2.8834 C.2       1 <0>         0.5263
     10 O1          0.0127   -1.9881   -3.3750 O.2       1 <0>        -0.4957
     11 C6          0.0432   -4.3146   -3.7711 C.3       1 <0>        -0.0972
     12 H2         -0.8373   -4.9232   -3.5652 H         1 <0>         0.1144
     13 C7          1.3055   -5.1339   -3.4952 C.3       1 <0>        -0.1170
     14 C8          2.5414   -4.2796   -3.7842 C.3       1 <0>        -0.1205
     15 C9          2.5276   -3.8422   -5.2502 C.3       1 <0>        -0.1204
     16 C10         1.2653   -3.0228   -5.5261 C.3       1 <0>        -0.1449
     17 H3          1.2563   -2.1420   -4.8841 H         1 <0>         0.1391
     18 C11         0.0294   -3.8771   -5.2372 C.3       1 <0>        -0.1002
     19 C12         1.2515   -2.5854   -6.9922 C.3       1 <0>         0.4547
     20 F1          1.2630   -3.7158   -7.8163 F         1 <0>        -0.1853
     21 F2          0.0973   -1.8361   -7.2445 F         1 <0>        -0.1812
     22 F3          2.3816   -1.8042   -7.2564 F         1 <0>        -0.1837
     23 H4          1.0042    1.8801    0.0026 H         1 <0>         0.0794
     24 H5         -0.5455    1.8639   -0.8728 H         1 <0>         0.0806
     25 H6         -0.5286    1.8543    0.9071 H         1 <0>         0.0742
     26 H7         -0.0021   -0.4754   -2.1602 H         1 <0>         0.1735
     27 H8          0.0542   -4.1263   -1.1501 H         1 <0>         0.4124
     28 H9          1.3153   -5.4456   -2.4507 H         1 <0>         0.0720
     29 H10         1.3144   -6.0147   -4.1373 H         1 <0>         0.0873
     30 H11         2.5324   -3.3988   -3.1421 H         1 <0>         0.0650
     31 H12         3.4406   -4.8633   -3.5876 H         1 <0>         0.0790
     32 H13         3.4081   -3.2335   -5.4561 H         1 <0>         0.0788
     33 H14         2.5366   -4.7230   -5.8923 H         1 <0>         0.0785
     34 H15         0.0384   -4.7579   -5.8792 H         1 <0>         0.0894
     35 H16        -0.8699   -3.2934   -5.4337 H         1 <0>         0.0875
@<TRIPOS>BOND
     1    1    2 1
     2    1   23 1
     3    1   24 1
     4    1   25 1
     5    2    7 2
     6    2    3 1
     7    3    4 2
     8    3   26 1
     9    4    5 1
    10    4    8 1
    11    5    6 1
    12    5    7 1
    13    8    9 am
    14    8   27 1
    15    9   10 2
    16    9   11 1
    17   11   12 1
    18   11   18 1
    19   11   13 1
    20   13   14 1
    21   13   28 1
    22   13   29 1
    23   14   15 1
    24   14   30 1
    25   14   31 1
    26   15   16 1
    27   15   32 1
    28   15   33 1
    29   16   17 1
    30   16   18 1
    31   16   19 1
    32   18   34 1
    33   18   35 1
    34   19   20 1
    35   19   21 1
    36   19   22 1
@<TRIPOS>MOLECULE
ZINC54697515
   38    40     0     0     0
SMALL
USER_CHARGES

@<TRIPOS>ATOM
      1 C1          2.0496    0.8253    1.8328 C.3       1 <0>        -0.1513
      2 C2          1.3015   -0.5009    1.6825 C.3       1 <0>        -0.1167
      3 C3          0.1732   -0.3372    0.6622 C.3       1 <0>        -0.0260
      4 C4         -0.5636   -1.6434    0.5141 C.2       1 <0>         0.2272
      5 N1         -0.2601   -2.6049   -0.3532 N.2       1 <0>        -0.5307
      6 C5         -1.1034   -3.6091   -0.2181 C.2       1 <0>         0.3239
      7 N2         -1.9760   -3.2864    0.7644 N.pl3     1 <0>        -0.3726
      8 N3         -1.5993   -2.0133    1.2221 N.2       1 <0>        -0.3120
      9 C6         -3.0882   -4.1036    1.2558 C.3       1 <0>         0.0921
     10 C7         -1.0969   -4.8634   -1.0001 C.ar      1 <0>        -0.0887
     11 C8         -1.2012   -6.0795   -0.3491 C.ar      1 <0>        -0.0272
     12 C9         -1.1945   -7.2672   -1.0959 C.ar      1 <0>        -0.1022
     13 C10        -1.2992   -8.5204   -0.4661 C.ar      1 <0>        -0.0829
     14 C11        -1.2903   -9.6551   -1.2174 C.ar      1 <0>        -0.1390
     15 C12        -1.1788   -9.5956   -2.6054 C.ar      1 <0>        -0.0928
     16 C13        -1.0755   -8.4013   -3.2500 C.ar      1 <0>        -0.1282
     17 C14        -1.0810   -7.2066   -2.5089 C.ar      1 <0>         0.0179
     18 C15        -0.9760   -5.9595   -3.1466 C.ar      1 <0>        -0.2122
     19 C16        -0.9902   -4.8120   -2.4067 C.ar      1 <0>         0.2630
     20 N4         -0.8922   -3.5778   -3.0462 N.pl3     1 <0>        -0.8634
     21 H1          2.8534    0.7087    2.5597 H         1 <0>         0.0579
     22 H2          2.4697    1.1166    0.8702 H         1 <0>         0.0575
     23 H3          1.3585    1.5954    2.1757 H         1 <0>         0.0565
     24 H4          1.9925   -1.2710    1.3397 H         1 <0>         0.0669
     25 H5          0.8813   -0.7922    2.6452 H         1 <0>         0.0635
     26 H6         -0.5178    0.4329    1.0050 H         1 <0>         0.0875
     27 H7          0.5933   -0.0459   -0.3005 H         1 <0>         0.0918
     28 H8         -2.7202   -4.8063    2.0034 H         1 <0>         0.0821
     29 H9         -3.8430   -3.4579    1.7046 H         1 <0>         0.0974
     30 H10        -3.5289   -4.6547    0.4250 H         1 <0>         0.0932
     31 H11        -1.2867   -6.1144    0.7270 H         1 <0>         0.1307
     32 H12        -1.3859   -8.5820    0.6086 H         1 <0>         0.1256
     33 H13        -1.3705  -10.6160   -0.7308 H         1 <0>         0.1230
     34 H14        -1.1738  -10.5111   -3.1783 H         1 <0>         0.1232
     35 H15        -0.9894   -8.3715   -4.3261 H         1 <0>         0.1272
     36 H16        -0.8894   -5.9080   -4.2218 H         1 <0>         0.1316
     37 H17        -0.9122   -2.7592   -2.5263 H         1 <0>         0.4050
     38 H18        -0.8041   -3.5373   -4.0114 H         1 <0>         0.4010
@<TRIPOS>BOND
     1    1    2 1
     2    1   21 1
     3    1   22 1
     4    1   23 1
     5    2    3 1
     6    2   24 1
     7    2   25 1
     8    3    4 1
     9    3   26 1
    10    3   27 1
    11    4    8 2
    12    4    5 1
    13    5    6 2
    14    6    7 1
    15    6   10 1
    16    7    8 1
    17    7    9 1
    18    9   28 1
    19    9   29 1
    20    9   30 1
    21   10   19 ar
    22   10   11 ar
    23   11   12 ar
    24   11   31 1
    25   12   17 ar
    26   12   13 ar
    27   13   14 ar
    28   13   32 1
    29   14   15 ar
    30   14   33 1
    31   15   16 ar
    32   15   34 1
    33   16   17 ar
    34   16   35 1
    35   17   18 ar
    36   18   19 ar
    37   18   36 1
    38   19   20 1
    39   20   37 1
    40   20   38 1
@<TRIPOS>MOLECULE
ZINC62795746
   35    36     0     0     0
SMALL
USER_CHARGES

@<TRIPOS>ATOM
      1 C1         -0.0178    1.4648    0.0101 C.3       1 <0>        -0.0455
      2 N1          0.0021   -0.0041    0.0020 N.4       1 <0>        -0.3797
      3 C2          0.6815   -0.4760   -1.2105 C.3       1 <0>        -0.0086
      4 C3          0.6339   -2.0045   -1.2642 C.3       1 <0>        -0.1439
      5 C4          1.3359   -2.5754   -0.0287 C.3       1 <0>        -0.1590
      6 C5          0.6658   -2.0178    1.2303 C.3       1 <0>         0.1418
      7 H1         -0.3718   -2.3496    1.2677 H         1 <0>         0.1007
      8 C6          0.7122   -0.4888    1.1916 C.3       1 <0>        -0.0179
      9 N2          1.3766   -2.4999    2.4171 N.pl3     1 <0>        -0.7411
     10 C7          1.0612   -3.7395    2.9603 C.ar      1 <0>         0.1972
     11 C8          0.0733   -4.5246    2.3717 C.ar      1 <0>        -0.1975
     12 C9         -0.2416   -5.7437    2.9002 C.ar      1 <0>        -0.0366
     13 C10         0.4286   -6.2092    4.0372 C.ar      1 <0>        -0.1539
     14 C11         1.4226   -5.4223    4.6309 C.ar      1 <0>        -0.0305
     15 C12         1.7385   -4.1965    4.0895 C.ar      1 <0>        -0.1089
     16 Cl1         2.9746   -3.2182    4.8164 Cl        1 <0>        -0.0866
     17 C13         0.0889   -7.5223    4.6076 C.2       1 <0>         0.5192
     18 O1         -0.7804   -8.2087    4.0878 O.co2     1 <0>        -0.6836
     19 O2          0.6757   -7.9278    5.6016 O.co2     1 <0>        -0.6806
     20 H2          1.0047    1.8421    0.0024 H         1 <0>         0.1212
     21 H3         -0.5450    1.8259   -0.8730 H         1 <0>         0.1249
     22 H4         -0.5280    1.8163    0.9069 H         1 <0>         0.1241
     23 H5          0.1827   -0.0663   -2.0888 H         1 <0>         0.1316
     24 H6          1.7201   -0.1456   -1.1964 H         1 <0>         0.1280
     25 H7         -0.4044   -2.3361   -1.2786 H         1 <0>         0.0902
     26 H8          1.1404   -2.3531   -2.1643 H         1 <0>         0.1147
     27 H9          1.2554   -3.6625   -0.0335 H         1 <0>         0.1021
     28 H10         2.3869   -2.2866   -0.0407 H         1 <0>         0.0838
     29 H11         1.7502   -0.1581    1.1545 H         1 <0>         0.1317
     30 H12         0.2361   -0.0886    2.0867 H         1 <0>         0.1365
     31 H13         2.0674   -1.9537    2.8239 H         1 <0>         0.4033
     32 H14        -0.4460   -4.1680    1.4944 H         1 <0>         0.1187
     33 H15        -1.0089   -6.3491    2.4405 H         1 <0>         0.1356
     34 H16         1.9425   -5.7772    5.5084 H         1 <0>         0.1423
     35 H17        -0.9449   -0.3523    0.0117 H         1 <0>         0.4265
@<TRIPOS>BOND
     1    1    2 1
     2    1   20 1
     3    1   21 1
     4    1   22 1
     5    2    8 1
     6    2    3 1
     7    2   35 1
     8    3    4 1
     9    3   23 1
    10    3   24 1
    11    4    5 1
    12    4   25 1
    13    4   26 1
    14    5    6 1
    15    5   27 1
    16    5   28 1
    17    6    7 1
    18    6    8 1
    19    6    9 1
    20    8   29 1
    21    8   30 1
    22    9   10 1
    23    9   31 1
    24   10   15 ar
    25   10   11 ar
    26   11   12 ar
    27   11   32 1
    28   12   13 ar
    29   12   33 1
    30   13   14 ar
    31   13   17 1
    32   14   15 ar
    33   14   34 1
    34   15   16 1
    35   17   18 2
    36   17   19 1
@<TRIPOS>MOLECULE
ZINC05553607
   46    48     0     0     0
SMALL
USER_CHARGES
2,2,4,7-tetramethyl-1-[2-(2H-1,2,4-triazol-3-ylsulfanyl)ethyl]-3,4-dihydroquinoline
@<TRIPOS>ATOM
      1 C1         -0.5379    0.2275   -1.4476 C.3       1 <0>        -0.1159
      2 C2         -0.4514    1.6052   -0.8429 C.ar      1 <0>        -0.0620
      3 C3          0.6895    1.9981   -0.1711 C.ar      1 <0>        -0.1493
      4 C4          0.7634    3.2685    0.3619 C.ar      1 <0>        -0.0880
      5 C5         -0.3016    4.1503    0.2457 C.ar      1 <0>        -0.1174
      6 C6         -1.4626    3.7511   -0.4005 C.ar      1 <0>         0.1448
      7 C7         -1.5147    2.4777   -0.9668 C.ar      1 <0>        -0.1645
      8 N1         -2.5718    4.5828   -0.4964 N.pl3     1 <0>        -0.4799
      9 C8         -2.6365    5.6283    0.5262 C.3       1 <0>         0.1181
     10 C9         -1.3369    6.4187    0.5865 C.3       1 <0>        -0.1033
     11 C10        -0.1218    5.5340    0.8037 C.3       1 <0>        -0.0469
     12 H1          0.7336    5.9958    0.2753 H         1 <0>         0.0773
     13 C11         0.2445    5.4703    2.2876 C.3       1 <0>        -0.1485
     14 C12        -3.7785    6.5915    0.1460 C.3       1 <0>        -0.1825
     15 C13        -2.9768    5.0044    1.8812 C.3       1 <0>        -0.1996
     16 C14        -3.8380    3.8338   -0.5062 C.3       1 <0>         0.0716
     17 C15        -4.9510    4.7061    0.0778 C.3       1 <0>        -0.1737
     18 S1         -6.5203    3.8067    0.0109 S.3       1 <0>        -0.0114
     19 C16        -7.5927    5.0089    0.7247 C.2       1 <0>         0.2651
     20 N2         -8.9207    4.8696    0.9281 N.pl3     1 <0>        -0.4631
     21 H2         -9.4642    4.0958    0.7116 H         1 <0>         0.4454
     22 N3         -9.3581    6.0679    1.5152 N.2       1 <0>        -0.3072
     23 C17        -8.3116    6.8403    1.6320 C.2       1 <0>         0.2141
     24 N4         -7.2411    6.2005    1.1600 N.2       1 <0>        -0.5413
     25 H3         -0.9517   -0.4655   -0.7151 H         1 <0>         0.0706
     26 H4         -1.1831    0.2560   -2.3257 H         1 <0>         0.0656
     27 H5          0.4585   -0.1044   -1.7394 H         1 <0>         0.0672
     28 H6          1.5214    1.3174   -0.0679 H         1 <0>         0.1202
     29 H7          1.6682    3.5769    0.8659 H         1 <0>         0.1209
     30 H8         -2.3630    2.1446   -1.5465 H         1 <0>         0.1217
     31 H9         -1.2122    6.9824   -0.3495 H         1 <0>         0.0727
     32 H10        -1.3989    7.1560    1.3999 H         1 <0>         0.0788
     33 H11         1.1753    4.9163    2.4087 H         1 <0>         0.0580
     34 H12         0.3706    6.4816    2.6744 H         1 <0>         0.0599
     35 H13        -0.5516    4.9678    2.8371 H         1 <0>         0.0603
     36 H14        -4.6701    6.3433    0.7219 H         1 <0>         0.1022
     37 H15        -3.4779    7.6160    0.3653 H         1 <0>         0.0599
     38 H16        -3.9951    6.4962   -0.9180 H         1 <0>         0.0753
     39 H17        -2.0584    4.6923    2.3785 H         1 <0>         0.0735
     40 H18        -3.4935    5.7383    2.4997 H         1 <0>         0.0729
     41 H19        -3.6209    4.1380    1.7308 H         1 <0>         0.0696
     42 H20        -4.0904    3.5602   -1.5306 H         1 <0>         0.0919
     43 H21        -3.7307    2.9309    0.0951 H         1 <0>         0.0652
     44 H22        -4.7159    4.9499    1.1138 H         1 <0>         0.1367
     45 H23        -5.0341    5.6254   -0.5019 H         1 <0>         0.1524
     46 H24        -8.3123    7.8367    2.0487 H         1 <0>         0.2228
@<TRIPOS>BOND
     1    1    2 1
     2    1   25 1
     3    1   26 1
     4    1   27 1
     5    2    7 ar
     6    2    3 ar
     7    3    4 ar
     8    3   28 1
     9    4    5 ar
    10    4   29 1
    11    5   11 1
    12    5    6 ar
    13    6    7 ar
    14    6    8 1
    15    7   30 1
    16    8    9 1
    17    8   16 1
    18    9   10 1
    19    9   14 1
    20    9   15 1
    21   10   11 1
    22   10   31 1
    23   10   32 1
    24   11   12 1
    25   11   13 1
    26   13   33 1
    27   13   34 1
    28   13   35 1
    29   14   36 1
    30   14   37 1
    31   14   38 1
    32   15   39 1
    33   15   40 1
    34   15   41 1
    35   16   17 1
    36   16   42 1
    37   16   43 1
    38   17   18 1
    39   17   44 1
    40   17   45 1
    41   18   19 1
    42   19   24 2
    43   19   20 1
    44   20   21 1
    45   20   22 1
    46   22   23 2
    47   23   24 1
    48   23   46 1
@<TRIPOS>MOLECULE
ZINC22746476
   33    35     0     0     0
SMALL
USER_CHARGES
4-fluoro-N-(5-propyl-1,3,4-thiadiazol-2-yl)benzothiophene-2-carboxamide
@<TRIPOS>ATOM
      1 C1          1.5393    5.4871    1.4584 C.3       1 <0>        -0.1541
      2 C2          1.3520    3.9686    1.4525 C.3       1 <0>        -0.1216
      3 C3          1.2755    3.4698    0.0081 C.3       1 <0>        -0.0267
      4 C4          1.0910    1.9742    0.0022 C.2       1 <0>         0.0744
      5 N1         -0.0150    1.2570    0.0090 N.2       1 <0>        -0.2547
      6 N2          0.0021   -0.0041    0.0020 N.2       1 <0>        -0.2826
      7 C5          1.1380   -0.6880   -0.0125 C.2       1 <0>         0.2966
      8 S1          2.3117    0.6643   -0.0164 S.3       1 <0>        -0.0264
      9 N3          1.3553   -2.0603   -0.0226 N.am      1 <0>        -0.6201
     10 C6          0.3079   -2.9085   -0.0174 C.2       1 <0>         0.6057
     11 O1         -0.8279   -2.4725   -0.0039 O.2       1 <0>        -0.4478
     12 C7          0.5375   -4.3592   -0.0281 C.2       1 <0>        -0.2016
     13 C8         -0.3803   -5.3627   -0.0195 C.2       1 <0>        -0.0329
     14 C9          0.0450   -6.7026   -0.0365 C.ar      1 <0>        -0.1425
     15 C10        -0.7533   -7.8783   -0.0359 C.ar      1 <0>         0.1621
     16 C11        -0.1693   -9.1178   -0.0491 C.ar      1 <0>        -0.1621
     17 C12         1.2118   -9.2682   -0.0630 C.ar      1 <0>        -0.0442
     18 C13         2.0185   -8.1487   -0.0635 C.ar      1 <0>        -0.0943
     19 C14         1.4468   -6.8942   -0.0508 C.ar      1 <0>        -0.0697
     20 S2          2.0897   -5.2393   -0.0476 S.3       1 <0>         0.0842
     21 F1         -2.1001   -7.7729   -0.0226 F         1 <0>        -0.1254
     22 H1          1.5943    5.8457    2.4968 H         1 <0>         0.0615
     23 H2          0.6878    5.9635    0.9506 H         1 <0>         0.0604
     24 H3          2.4705    5.7437    0.9320 H         1 <0>         0.0584
     25 H4          2.2035    3.4922    1.9604 H         1 <0>         0.0672
     26 H5          0.4208    3.7119    1.9789 H         1 <0>         0.0731
     27 H6          0.4240    3.9463   -0.4997 H         1 <0>         0.1099
     28 H7          2.2067    3.7264   -0.5183 H         1 <0>         0.0980
     29 H8          2.3822   -2.4545   -0.0348 H         1 <0>         0.4560
     30 H9         -1.4349   -5.1305   -0.0031 H         1 <0>         0.1544
     31 H10        -0.7964   -9.9971   -0.0484 H         1 <0>         0.1478
     32 H11         1.6510  -10.2548   -0.0739 H         1 <0>         0.1518
     33 H12         3.0932   -8.2547   -0.0746 H         1 <0>         0.1451
@<TRIPOS>BOND
     1    1    2 1
     2    1   22 1
     3    1   23 1
     4    1   24 1
     5    2    3 1
     6    2   25 1
     7    2   26 1
     8    3    4 1
     9    3   27 1
    10    3   28 1
    11    4    8 1
    12    4    5 2
    13    5    6 1
    14    6    7 2
    15    7    8 1
    16    7    9 1
    17    9   10 am
    18    9   29 1
    19   10   11 2
    20   10   12 1
    21   12   20 1
    22   12   13 2
    23   13   14 1
    24   13   30 1
    25   14   19 ar
    26   14   15 ar
    27   15   16 ar
    28   15   21 1
    29   16   17 ar
    30   16   31 1
    31   17   18 ar
    32   17   32 1
    33   18   19 ar
    34   18   33 1
    35   19   20 1
@<TRIPOS>MOLECULE
ZINC40062195
   37    38     0     0     0
SMALL
USER_CHARGES

@<TRIPOS>ATOM
      1 C1         -0.0187    1.5258    0.0104 C.3       1 <0>        -0.1728
      2 C2          0.0021   -0.0041    0.0020 C.3       1 <0>         0.1432
      3 C3          0.7182   -0.4975   -1.2568 C.3       1 <0>        -0.1609
      4 N1          0.7106   -0.4894    1.1889 N.pl3     1 <0>        -0.6788
      5 C4          0.0358   -0.6368    2.3827 C.2       1 <0>         0.3340
      6 C5         -1.3038   -0.3751    2.6144 C.2       1 <0>        -0.0597
      7 N2         -1.5381   -0.6592    3.9269 N.2       1 <0>        -0.4095
      8 C6         -0.4307   -1.0655    4.4679 C.2       1 <0>         0.2157
      9 O1          0.5489   -1.0688    3.5493 O.3       1 <0>        -0.2088
     10 C7         -0.2697   -1.4777    5.9085 C.3       1 <0>        -0.0535
     11 H1          0.7353   -1.3744    6.3175 H         1 <0>         0.1395
     12 C8         -1.4464   -1.2215    6.8523 C.3       1 <0>        -0.0940
     13 H2         -2.3369   -0.7548    6.4313 H         1 <0>         0.1392
     14 C9         -1.1185   -2.6489    6.4072 C.3       1 <0>        -0.0752
     15 C10        -2.0657   -3.3120    5.4052 C.3       1 <0>        -0.1226
     16 C11        -0.4917   -3.5852    7.4423 C.3       1 <0>        -0.1234
     17 C12        -1.1271   -0.8457    8.2763 C.2       1 <0>        -0.0890
     18 C13        -2.0861   -0.4510    9.0821 C.2       1 <0>        -0.0351
     19 Cl1        -3.7216   -0.3624    8.5068 Cl        1 <0>        -0.0308
     20 Cl2        -1.7183   -0.0181   10.7225 Cl        1 <0>        -0.0348
     21 C14        -2.2586    0.1025    1.6600 C.1       1 <0>         0.3055
     22 N3         -3.0161    0.4813    0.9029 N.1       1 <0>        -0.4115
     23 H3          1.0039    1.9031    0.0027 H         1 <0>         0.0671
     24 H4         -0.5459    1.8868   -0.8726 H         1 <0>         0.0767
     25 H5         -0.5289    1.8773    0.9072 H         1 <0>         0.0598
     26 H6         -1.0205   -0.3814    0.0098 H         1 <0>         0.0893
     27 H7          1.7408   -0.1202   -1.2645 H         1 <0>         0.0685
     28 H8          0.7330   -1.5874   -1.2628 H         1 <0>         0.0681
     29 H9          0.1910   -0.1364   -2.1398 H         1 <0>         0.0837
     30 H10         1.6544   -0.7070    1.1351 H         1 <0>         0.4142
     31 H11        -1.4901   -3.7089    4.5690 H         1 <0>         0.0608
     32 H12        -2.6021   -4.1245    5.8952 H         1 <0>         0.0680
     33 H13        -2.7796   -2.5750    5.0375 H         1 <0>         0.0731
     34 H14        -0.2315   -3.0172    8.3355 H         1 <0>         0.0645
     35 H15        -1.2047   -4.3671    7.7039 H         1 <0>         0.0712
     36 H16         0.4076   -4.0383    7.0251 H         1 <0>         0.0684
     37 H17        -0.1096   -0.9008    8.6342 H         1 <0>         0.1499
@<TRIPOS>BOND
     1    1    2 1
     2    1   23 1
     3    1   24 1
     4    1   25 1
     5    2    3 1
     6    2    4 1
     7    2   26 1
     8    3   27 1
     9    3   28 1
    10    3   29 1
    11    4    5 1
    12    4   30 1
    13    5    9 1
    14    5    6 2
    15    6    7 1
    16    6   21 1
    17    7    8 2
    18    8    9 1
    19    8   10 1
    20   10   11 1
    21   10   14 1
    22   10   12 1
    23   12   13 1
    24   12   14 1
    25   12   17 1
    26   14   15 1
    27   14   16 1
    28   15   31 1
    29   15   32 1
    30   15   33 1
    31   16   34 1
    32   16   35 1
    33   16   36 1
    34   17   18 2
    35   17   37 1
    36   18   19 1
    37   18   20 1
    38   21   22 3
@<TRIPOS>MOLECULE
ZINC45129857
   48    50     0     0     0
SMALL
USER_CHARGES

@<TRIPOS>ATOM
      1 C1          2.5116   -0.9829    1.4595 C.3       1 <0>        -0.1189
      2 C2          1.2247   -1.2080    0.7084 C.ar      1 <0>        -0.0813
      3 C3          1.2454   -1.8221   -0.5301 C.ar      1 <0>        -0.1182
      4 C4          0.0651   -2.0285   -1.2189 C.ar      1 <0>        -0.1187
      5 C5         -1.1364   -1.6213   -0.6692 C.ar      1 <0>        -0.1249
      6 C6         -1.1573   -1.0083    0.5693 C.ar      1 <0>        -0.1003
      7 C7          0.0230   -0.8056    1.2603 C.ar      1 <0>        -0.1017
      8 C8         -0.0002   -0.1419    2.6130 C.3       1 <0>         0.1749
      9 N1         -1.3884    0.0910    3.0189 N.am      1 <0>        -0.6320
     10 C9         -2.0823   -0.8926    3.8540 C.3       1 <0>         0.0769
     11 C10        -2.0273    1.2101    2.6241 C.2       1 <0>         0.7061
     12 O1         -1.4276    2.0647    2.0008 O.2       1 <0>        -0.5785
     13 N2         -3.3308    1.3821    2.9203 N.am      1 <0>        -0.7489
     14 C11        -4.0252    2.5986    2.4911 C.3       1 <0>         0.1461
     15 C12        -5.4832    2.5430    2.9517 C.3       1 <0>        -0.1379
     16 H1         -5.9490    1.6276    2.5869 H         1 <0>         0.0931
     17 C13        -6.2414    3.7582    2.4119 C.3       1 <0>        -0.0697
     18 C14        -7.5805    3.8660    3.0962 C.ar      1 <0>        -0.1594
     19 C15        -8.5661    4.6450    2.5130 C.ar      1 <0>        -0.0838
     20 C16        -9.8030    4.7697    3.1145 C.ar      1 <0>        -0.1502
     21 C17       -10.0619    4.1150    4.3047 C.ar      1 <0>        -0.0871
     22 C18        -9.0847    3.3360    4.8893 C.ar      1 <0>        -0.1480
     23 C19        -7.8377    3.2070    4.2855 C.ar      1 <0>         0.1287
     24 O2         -6.9046    2.4235    4.8860 O.3       1 <0>        -0.3140
     25 C20        -5.5430    2.5785    4.4841 C.3       1 <0>         0.0667
     26 H2          2.6730   -1.8039    2.1580 H         1 <0>         0.0719
     27 H3          3.3411   -0.9379    0.7537 H         1 <0>         0.0681
     28 H4          2.4516   -0.0440    2.0099 H         1 <0>         0.0683
     29 H5          2.1839   -2.1401   -0.9595 H         1 <0>         0.1225
     30 H6          0.0813   -2.5076   -2.1867 H         1 <0>         0.1211
     31 H7         -2.0587   -1.7820   -1.2078 H         1 <0>         0.1188
     32 H8         -2.0958   -0.6899    0.9986 H         1 <0>         0.1149
     33 H9          0.4883   -0.7874    3.3429 H         1 <0>         0.0923
     34 H10         0.5274    0.8104    2.5596 H         1 <0>         0.0980
     35 H11        -1.9261   -0.6513    4.9054 H         1 <0>         0.0606
     36 H12        -3.1489   -0.8708    3.6308 H         1 <0>         0.0654
     37 H13        -1.6880   -1.8875    3.6471 H         1 <0>         0.0777
     38 H14        -3.8092    0.7004    3.4176 H         1 <0>         0.3964
     39 H15        -3.5383    3.4691    2.9306 H         1 <0>         0.0731
     40 H16        -3.9901    2.6727    1.4042 H         1 <0>         0.0756
     41 H17        -5.6624    4.6616    2.6036 H         1 <0>         0.0840
     42 H18        -6.3909    3.6449    1.3382 H         1 <0>         0.0876
     43 H19        -8.3663    5.1576    1.5837 H         1 <0>         0.1255
     44 H20       -10.5679    5.3787    2.6556 H         1 <0>         0.1252
     45 H21       -11.0286    4.2131    4.7763 H         1 <0>         0.1294
     46 H22        -9.2879    2.8252    5.8189 H         1 <0>         0.1304
     47 H23        -4.9437    1.7654    4.8939 H         1 <0>         0.1051
     48 H24        -5.1616    3.5339    4.8444 H         1 <0>         0.0691
@<TRIPOS>BOND
     1    1    2 1
     2    1   26 1
     3    1   27 1
     4    1   28 1
     5    2    7 ar
     6    2    3 ar
     7    3    4 ar
     8    3   29 1
     9    4    5 ar
    10    4   30 1
    11    5    6 ar
    12    5   31 1
    13    6    7 ar
    14    6   32 1
    15    7    8 1
    16    8    9 1
    17    8   33 1
    18    8   34 1
    19    9   10 1
    20    9   11 am
    21   10   35 1
    22   10   36 1
    23   10   37 1
    24   11   12 2
    25   11   13 am
    26   13   14 1
    27   13   38 1
    28   14   15 1
    29   14   39 1
    30   14   40 1
    31   15   16 1
    32   15   25 1
    33   15   17 1
    34   17   18 1
    35   17   41 1
    36   17   42 1
    37   18   23 ar
    38   18   19 ar
    39   19   20 ar
    40   19   43 1
    41   20   21 ar
    42   20   44 1
    43   21   22 ar
    44   21   45 1
    45   22   23 ar
    46   22   46 1
    47   23   24 1
    48   24   25 1
    49   25   47 1
    50   25   48 1
@<TRIPOS>MOLECULE
ZINC66567189
   42    45     0     0     0
SMALL
USER_CHARGES

@<TRIPOS>ATOM
      1 C1          0.0105    1.3324   -0.6566 C.ar      1 <0>        -0.1764
      2 C2          1.1647    2.0577   -0.4240 C.ar      1 <0>        -0.0733
      3 C3          2.3634    1.4037   -0.2177 C.ar      1 <0>        -0.1924
      4 C4          2.4089    0.0155   -0.2441 C.ar      1 <0>         0.2274
      5 C5          1.2477   -0.7100   -0.4781 C.ar      1 <0>        -0.1907
      6 C6          0.0523   -0.0496   -0.6836 C.ar      1 <0>        -0.0730
      7 N1          3.6196   -0.6492   -0.0363 N.pl3     1 <0>        -0.5959
      8 C7          4.8643    0.1148    0.0791 C.3       1 <0>         0.1704
      9 C8          5.1023    0.4722    1.5236 C.2       1 <0>         0.3645
     10 N2          6.2121    1.1911    1.8370 N.am      1 <0>        -0.6371
     11 H1          6.8311    1.4642    1.1420 H         1 <0>         0.4237
     12 C9          6.4452    1.5231    3.1297 C.2       1 <0>         0.5832
     13 O1          7.4318    2.1678    3.4434 O.2       1 <0>        -0.5230
     14 C10         5.5246    1.1069    4.0918 C.2       1 <0>        -0.3232
     15 C11         4.3840    0.3637    3.7409 C.2       1 <0>         0.1651
     16 N3          4.2369    0.0836    2.4044 N.2       1 <0>        -0.4733
     17 C12         3.5429    0.0108    4.8049 C.2       1 <0>        -0.1548
     18 C13         3.8499    0.3834    6.0661 C.2       1 <0>        -0.1281
     19 S1          5.3796    1.2784    5.8507 S.3       1 <0>         0.1684
     20 C14         3.6449   -2.1103    0.0662 C.3       1 <0>         0.1520
     21 C15         4.3967   -2.5375    1.3438 C.3       1 <0>        -0.1275
     22 C16         5.1687   -3.8123    0.9219 C.3       1 <0>        -0.1290
     23 C17         5.6157   -3.4787   -0.5231 C.3       1 <0>        -0.1246
     24 C18         4.4199   -2.7087   -1.1208 C.3       1 <0>        -0.1410
     25 H2         -0.9264    1.8462   -0.8132 H         1 <0>         0.1165
     26 H3          1.1286    3.1369   -0.4039 H         1 <0>         0.1176
     27 H4          3.2645    1.9708   -0.0364 H         1 <0>         0.1115
     28 H5          1.2797   -1.7893   -0.4996 H         1 <0>         0.1219
     29 H6         -0.8509   -0.6131   -0.8656 H         1 <0>         0.1197
     30 H7          5.6955   -0.4872   -0.2880 H         1 <0>         0.1118
     31 H8          4.7870    1.0269   -0.5128 H         1 <0>         0.1115
     32 H9          2.6463   -0.5607    4.6155 H         1 <0>         0.1489
     33 H10         3.3055    0.1884    6.9783 H         1 <0>         0.2036
     34 H11         2.6274   -2.5008    0.0827 H         1 <0>         0.0964
     35 H12         5.0906   -1.7574    1.6569 H         1 <0>         0.0716
     36 H13         3.6916   -2.7656    2.1431 H         1 <0>         0.0698
     37 H14         6.0331   -3.9715    1.5665 H         1 <0>         0.0651
     38 H15         4.5124   -4.6825    0.9320 H         1 <0>         0.0691
     39 H16         6.5064   -2.8506   -0.5115 H         1 <0>         0.0623
     40 H17         5.8002   -4.3935   -1.0862 H         1 <0>         0.0676
     41 H18         3.7788   -3.3903   -1.6798 H         1 <0>         0.0721
     42 H19         4.7773   -1.9120   -1.7731 H         1 <0>         0.0716
@<TRIPOS>BOND
     1    1    6 ar
     2    1    2 ar
     3    1   25 1
     4    2    3 ar
     5    2   26 1
     6    3    4 ar
     7    3   27 1
     8    4    5 ar
     9    4    7 1
    10    5    6 ar
    11    5   28 1
    12    6   29 1
    13    7    8 1
    14    7   20 1
    15    8    9 1
    16    8   30 1
    17    8   31 1
    18    9   16 2
    19    9   10 1
    20   10   11 1
    21   10   12 am
    22   12   13 2
    23   12   14 1
    24   14   19 1
    25   14   15 2
    26   15   16 1
    27   15   17 1
    28   17   18 2
    29   17   32 1
    30   18   19 1
    31   18   33 1
    32   20   24 1
    33   20   21 1
    34   20   34 1
    35   21   22 1
    36   21   35 1
    37   21   36 1
    38   22   23 1
    39   22   37 1
    40   22   38 1
    41   23   24 1
    42   23   39 1
    43   23   40 1
    44   24   41 1
    45   24   42 1
@<TRIPOS>MOLECULE
ZINC05235054
   42    43     0     0     0
SMALL
USER_CHARGES
4-(3,4-dimethyl-5-nitro-phenyl)sulfonyl-2,6-dimethyl-morpholine
@<TRIPOS>ATOM
      1 C1          3.5531   -3.8142   -2.4741 C.3       1 <0>        -0.1218
      2 C2          4.0788   -2.5822   -1.7837 C.ar      1 <0>        -0.0977
      3 C3          3.6164   -2.2446   -0.5252 C.ar      1 <0>         0.0235
      4 C4          4.0950   -1.1119    0.1060 C.ar      1 <0>        -0.6821
      5 C5          5.0439   -0.3224   -0.5166 C.ar      1 <0>         0.0377
      6 C6          5.5100   -0.6627   -1.7725 C.ar      1 <0>        -0.0534
      7 C7          5.0274   -1.7928   -2.4061 C.ar      1 <0>         0.0279
      8 C8          5.5360   -2.1642   -3.7752 C.3       1 <0>        -0.1407
      9 N1          6.5263    0.1823   -2.4388 N.pl3     1 <0>         0.0230
     10 O1          7.4028   -0.3335   -3.1090 O.2       1 <0>        -0.1398
     11 O2          6.4860    1.3936   -2.3170 O.3       1 <0>        -0.1459
     12 S1          3.5011   -0.6783    1.7072 S.o2      1 <0>         2.6923
     13 O3          4.5095    0.1197    2.3120 O.2       1 <0>        -0.9399
     14 O4          3.0202   -1.8767    2.3003 O.2       1 <0>        -0.9397
     15 N2          2.1856    0.3043    1.4920 N.pl3     1 <0>        -0.9950
     16 C9          0.8296   -0.2575    1.3877 C.3       1 <0>         0.0896
     17 C10         0.1588    0.3271    0.1394 C.3       1 <0>         0.0693
     18 H1          0.6607   -0.0473   -0.7528 H         1 <0>         0.0659
     19 O5          0.2540    1.7530    0.1779 O.3       1 <0>        -0.3636
     20 C11         1.5938    2.2510    0.1511 C.3       1 <0>         0.0763
     21 H2          1.5770    3.3408    0.1384 H         1 <0>         0.1206
     22 C12         2.3381    1.7650    1.4000 C.3       1 <0>         0.0888
     23 C13         2.3057    1.7353   -1.1012 C.3       1 <0>        -0.1930
     24 C14        -1.3141   -0.0860    0.1085 C.3       1 <0>        -0.1471
     25 H3          4.1737   -4.6708   -2.2112 H         1 <0>         0.0867
     26 H4          2.5266   -3.9983   -2.1571 H         1 <0>         0.0808
     27 H5          3.5787   -3.6646   -3.5535 H         1 <0>         0.0818
     28 H6          2.8784   -2.8638   -0.0370 H         1 <0>         0.1590
     29 H7          5.4211    0.5602   -0.0215 H         1 <0>         0.1627
     30 H8          6.3835   -2.8425   -3.6763 H         1 <0>         0.1050
     31 H9          4.7414   -2.6551   -4.3371 H         1 <0>         0.0907
     32 H10         5.8509   -1.2637   -4.3024 H         1 <0>         0.0820
     33 H11         0.2527    0.0090    2.2733 H         1 <0>         0.0908
     34 H12         0.8868   -1.3424    1.2996 H         1 <0>         0.0991
     35 H13         1.9131    2.2350    2.2868 H         1 <0>         0.0917
     36 H14         3.3950    2.0194    1.3204 H         1 <0>         0.1013
     37 H15         1.7734    2.0775   -1.9887 H         1 <0>         0.0713
     38 H16         3.3271    2.1154   -1.1210 H         1 <0>         0.0722
     39 H17         2.3238    0.6455   -1.0860 H         1 <0>         0.0565
     40 H18        -1.7907    0.3337   -0.7774 H         1 <0>         0.0695
     41 H19        -1.3859   -1.1733    0.0791 H         1 <0>         0.0751
     42 H20        -1.8149    0.2872    1.0018 H         1 <0>         0.0693
@<TRIPOS>BOND
     1    1    2 1
     2    1   25 1
     3    1   26 1
     4    1   27 1
     5    2    7 ar
     6    2    3 ar
     7    3    4 ar
     8    3   28 1
     9    4    5 ar
    10    4   12 1
    11    5    6 ar
    12    5   29 1
    13    6    7 ar
    14    6    9 1
    15    7    8 1
    16    8   30 1
    17    8   31 1
    18    8   32 1
    19    9   10 2
    20    9   11 1
    21   12   13 2
    22   12   14 2
    23   12   15 1
    24   15   22 1
    25   15   16 1
    26   16   17 1
    27   16   33 1
    28   16   34 1
    29   17   18 1
    30   17   19 1
    31   17   24 1
    32   19   20 1
    33   20   21 1
    34   20   22 1
    35   20   23 1
    36   22   35 1
    37   22   36 1
    38   23   37 1
    39   23   38 1
    40   23   39 1
    41   24   40 1
    42   24   41 1
    43   24   42 1
@<TRIPOS>MOLECULE
ZINC19225208
   41    44     0     0     0
SMALL
USER_CHARGES
3-[(2R)-1-[[2-(3-furyl)-5-methyl-oxazol-4-yl]methyl]pyrrolidin-2-yl]-4-methyl-1,2,5-oxadiazole
@<TRIPOS>ATOM
      1 C1          1.3213    1.4929    3.8262 C.3       1 <0>        -0.0975
      2 C2          0.2770    0.4103    3.7334 C.2       1 <0>         0.0759
      3 C3         -0.6058    0.2211    2.6516 C.2       1 <0>         0.0677
      4 N1         -1.3693   -0.8027    2.8918 N.2       1 <0>        -0.2305
      5 O1         -1.0037   -1.3161    4.1628 O.3       1 <0>         0.0228
      6 N2          0.0476   -0.4917    4.6403 N.2       1 <0>        -0.2777
      7 C4         -0.6528    1.0698    1.4072 C.3       1 <0>         0.1259
      8 H1         -0.1918    2.0280    1.6888 H         1 <0>         0.0912
      9 C5          0.0266    0.3399    0.2215 C.3       1 <0>        -0.1100
     10 C6         -0.6314    0.9937   -1.0153 C.3       1 <0>        -0.1269
     11 C7         -1.9605    1.5780   -0.5019 C.3       1 <0>         0.0340
     12 N3         -2.0556    1.2424    0.9353 N.3       1 <0>        -0.4924
     13 C8         -2.7337    2.3106    1.6816 C.3       1 <0>         0.1275
     14 C9         -4.1670    2.4096    1.2266 C.2       1 <0>         0.0035
     15 C10        -4.6480    3.2627    0.3060 C.2       1 <0>        -0.0399
     16 O2         -5.9708    3.0248    0.1912 O.3       1 <0>        -0.1924
     17 C11        -6.2841    2.0366    1.0469 C.2       1 <0>         0.2701
     18 N4         -5.1917    1.6649    1.6730 N.2       1 <0>        -0.4556
     19 C12        -7.6314    1.4647    1.2488 C.2       1 <0>        -0.1318
     20 C13        -8.8724    1.8557    0.5671 C.2       1 <0>        -0.1914
     21 C14        -9.8356    1.0668    1.0701 C.2       1 <0>        -0.0276
     22 O3         -9.2964    0.2444    1.9830 O.3       1 <0>        -0.1713
     23 C15        -7.9797    0.4619    2.1011 C.2       1 <0>         0.0450
     24 C16        -3.8557    4.2917   -0.4585 C.3       1 <0>        -0.0797
     25 H2          1.2907    2.1108    2.9166 H         1 <0>         0.0913
     26 H3          2.3165    1.0348    3.9251 H         1 <0>         0.0973
     27 H4          1.1189    2.1233    4.7047 H         1 <0>         0.0959
     28 H5          1.1128    0.5091    0.2607 H         1 <0>         0.0846
     29 H6         -0.1791   -0.7386    0.2884 H         1 <0>         0.0830
     30 H7          0.0301    1.7787   -1.4106 H         1 <0>         0.0771
     31 H8         -0.7971    0.2298   -1.7893 H         1 <0>         0.0806
     32 H9         -1.9619    2.6684   -0.6468 H         1 <0>         0.0576
     33 H10        -2.7969    1.1328   -1.0606 H         1 <0>         0.0842
     34 H11        -2.7054    2.0814    2.7571 H         1 <0>         0.0909
     35 H12        -2.2236    3.2675    1.4972 H         1 <0>         0.0613
     36 H13        -8.9868    2.6217   -0.1856 H         1 <0>         0.1588
     37 H14       -10.8772    1.0907    0.7859 H         1 <0>         0.2119
     38 H15        -7.3089   -0.0669    2.7619 H         1 <0>         0.2194
     39 H16        -4.5250    4.8382   -1.1393 H         1 <0>         0.0831
     40 H17        -3.0695    3.7900   -1.0417 H         1 <0>         0.0935
     41 H18        -3.3944    4.9980    0.2475 H         1 <0>         0.0909
@<TRIPOS>BOND
     1    1    2 1
     2    1   25 1
     3    1   26 1
     4    1   27 1
     5    2    6 2
     6    2    3 1
     7    3    4 2
     8    3    7 1
     9    4    5 1
    10    5    6 1
    11    7    8 1
    12    7   12 1
    13    7    9 1
    14    9   10 1
    15    9   28 1
    16    9   29 1
    17   10   11 1
    18   10   30 1
    19   10   31 1
    20   11   12 1
    21   11   32 1
    22   11   33 1
    23   12   13 1
    24   13   14 1
    25   13   34 1
    26   13   35 1
    27   14   18 1
    28   14   15 2
    29   15   16 1
    30   15   24 1
    31   16   17 1
    32   17   18 2
    33   17   19 1
    34   19   23 2
    35   19   20 1
    36   20   21 2
    37   20   36 1
    38   21   22 1
    39   21   37 1
    40   22   23 1
    41   23   38 1
    42   24   39 1
    43   24   40 1
    44   24   41 1
@<TRIPOS>MOLECULE
ZINC03474783
   32    34     0     0     0
SMALL
USER_CHARGES

@<TRIPOS>ATOM
      1 C1         -0.0167    1.3820    0.0096 C.ar      1 <0>        -0.2356
      2 C2          1.1916    2.0614    0.0018 C.ar      1 <0>         0.1660
      3 N1          2.3198    1.3714   -0.0127 N.ar      1 <0>        -0.5014
      4 C3          2.3032    0.0460   -0.0197 C.ar      1 <0>         0.2953
      5 N2          1.1651   -0.6336   -0.0125 N.ar      1 <0>        -0.5298
      6 C4          0.0021   -0.0041    0.0020 C.ar      1 <0>         0.1637
      7 S1          3.8301   -0.8333   -0.0396 S.3       1 <0>         0.0180
      8 C5          3.3319   -2.5776   -0.0440 C.3       1 <0>        -0.0599
      9 C6          4.5601   -3.4507   -0.0609 C.ar      1 <0>        -0.1056
     10 C7          5.1145   -3.8398   -1.2648 C.ar      1 <0>         0.0009
     11 C8          6.2407   -4.6414   -1.2810 C.ar      1 <0>        -0.0783
     12 C9          6.8133   -5.0563   -0.0929 C.ar      1 <0>        -0.0004
     13 C10         6.2620   -4.6704    1.1143 C.ar      1 <0>        -0.2027
     14 C11         5.1378   -3.8593    1.1332 C.ar      1 <0>         0.2071
     15 O1          4.5938   -3.4599    2.3137 O.3       1 <0>        -0.3091
     16 C12         4.9886   -4.1812    3.4842 C.3       1 <0>         0.2159
     17 O2          6.4150   -4.3136    3.4808 O.3       1 <0>        -0.3738
     18 C13         6.8922   -5.1321    2.4039 C.3       1 <0>         0.1013
     19 N3          6.8340   -5.0564   -2.5719 N.pl3     1 <0>         0.0384
     20 O3          6.3337   -4.6944   -3.6112 O.2       1 <0>        -0.1540
     21 O4          7.8189   -5.7574   -2.5869 O.3       1 <0>        -0.1565
     22 H1         -0.9525    1.9209    0.0259 H         1 <0>         0.1524
     23 H2          1.2114    3.1412    0.0070 H         1 <0>         0.1756
     24 H3         -0.9219   -0.5632    0.0082 H         1 <0>         0.1731
     25 H4          2.7470   -2.7906    0.8507 H         1 <0>         0.1155
     26 H5          2.7293   -2.7811   -0.9292 H         1 <0>         0.1122
     27 H6          4.6677   -3.5180   -2.1939 H         1 <0>         0.1665
     28 H7          7.6927   -5.6831   -0.1082 H         1 <0>         0.1637
     29 H8          4.6739   -3.6355    4.3737 H         1 <0>         0.1536
     30 H9          4.5294   -5.1698    3.4769 H         1 <0>         0.0745
     31 H10         6.6338   -6.1760    2.5819 H         1 <0>         0.0878
     32 H11         7.9754   -5.0313    2.3360 H         1 <0>         0.1256
@<TRIPOS>BOND
     1    1    6 ar
     2    1    2 ar
     3    1   22 1
     4    2    3 ar
     5    2   23 1
     6    3    4 ar
     7    4    5 ar
     8    4    7 1
     9    5    6 ar
    10    6   24 1
    11    7    8 1
    12    8    9 1
    13    8   25 1
    14    8   26 1
    15    9   14 ar
    16    9   10 ar
    17   10   11 ar
    18   10   27 1
    19   11   12 ar
    20   11   19 1
    21   12   13 ar
    22   12   28 1
    23   13   18 1
    24   13   14 ar
    25   14   15 1
    26   15   16 1
    27   16   17 1
    28   16   29 1
    29   16   30 1
    30   17   18 1
    31   18   31 1
    32   18   32 1
    33   19   20 2
    34   19   21 1
@<TRIPOS>MOLECULE
ZINC61522192
   37    39     0     0     0
SMALL
USER_CHARGES

@<TRIPOS>ATOM
      1 C1         -0.0189    1.5409    0.0105 C.3       1 <0>        -0.1462
      2 C2          1.4743    1.9366   -0.0016 C.3       1 <0>         0.0425
      3 O1          2.1632    0.7948    0.5532 O.3       1 <0>        -0.3725
      4 C3          1.5055   -0.3590   -0.0142 C.3       1 <0>         0.0505
      5 C4          0.0021   -0.0041    0.0020 C.3       1 <0>        -0.1241
      6 H1         -0.4735   -0.3974    0.9004 H         1 <0>         0.0996
      7 C5         -0.6895   -0.5427   -1.2520 C.3       1 <0>         0.0805
      8 O2         -0.7609   -1.9682   -1.1815 O.3       1 <0>        -0.2748
      9 C6         -1.3483   -2.6059   -2.2202 C.ar      1 <0>         0.5959
     10 N1         -1.4516   -3.9288   -2.2142 N.ar      1 <0>        -0.6044
     11 C7         -2.0291   -4.5524   -3.2359 C.ar      1 <0>         0.6456
     12 N2         -2.5017   -3.8485   -4.2615 N.ar      1 <0>        -0.6090
     13 C8         -2.3968   -2.5301   -4.2637 C.ar      1 <0>         0.4795
     14 N3         -1.8269   -1.9074   -3.2442 N.ar      1 <0>        -0.6306
     15 Cl1        -3.0142   -1.6141   -5.6029 Cl        1 <0>         0.0500
     16 N4         -2.1379   -5.9280   -3.2334 N.pl3     1 <0>        -0.5635
     17 C9         -1.6275   -6.7262   -2.1075 C.3       1 <0>         0.0853
     18 C10        -2.7355   -7.6822   -1.6510 C.3       1 <0>         0.0473
     19 O3         -3.2205   -8.4137   -2.7795 O.3       1 <0>        -0.3770
     20 C11        -3.8207   -7.6002   -3.7904 C.3       1 <0>         0.0470
     21 C12        -2.7733   -6.6396   -4.3538 C.3       1 <0>         0.0858
     22 H2         -0.5048    1.9113    0.9131 H         1 <0>         0.0863
     23 H3         -0.5219    1.9209   -0.8786 H         1 <0>         0.0845
     24 H4          1.8092    2.1228   -1.0220 H         1 <0>         0.0626
     25 H5          1.6385    2.8173    0.6192 H         1 <0>         0.0962
     26 H6          1.8451   -0.5248   -1.0366 H         1 <0>         0.0620
     27 H7          1.6936   -1.2417    0.5969 H         1 <0>         0.0983
     28 H8         -1.6968   -0.1312   -1.3165 H         1 <0>         0.0822
     29 H9         -0.1205   -0.2506   -2.1346 H         1 <0>         0.0804
     30 H10        -0.7575   -7.2992   -2.4283 H         1 <0>         0.0851
     31 H11        -1.3504   -6.0663   -1.2855 H         1 <0>         0.1130
     32 H12        -2.3359   -8.3763   -0.9117 H         1 <0>         0.1139
     33 H13        -3.5516   -7.1097   -1.2102 H         1 <0>         0.0579
     34 H14        -4.2018   -8.2353   -4.5901 H         1 <0>         0.1143
     35 H15        -4.6407   -7.0274   -3.3573 H         1 <0>         0.0577
     36 H16        -3.2546   -5.9223   -5.0186 H         1 <0>         0.1131
     37 H17        -2.0206   -7.2037   -4.9046 H         1 <0>         0.0849
@<TRIPOS>BOND
     1    1    5 1
     2    1    2 1
     3    1   22 1
     4    1   23 1
     5    2    3 1
     6    2   24 1
     7    2   25 1
     8    3    4 1
     9    4    5 1
    10    4   26 1
    11    4   27 1
    12    5    6 1
    13    5    7 1
    14    7    8 1
    15    7   28 1
    16    7   29 1
    17    8    9 1
    18    9   14 ar
    19    9   10 ar
    20   10   11 ar
    21   11   12 ar
    22   11   16 1
    23   12   13 ar
    24   13   14 ar
    25   13   15 1
    26   16   21 1
    27   16   17 1
    28   17   18 1
    29   17   30 1
    30   17   31 1
    31   18   19 1
    32   18   32 1
    33   18   33 1
    34   19   20 1
    35   20   21 1
    36   20   34 1
    37   20   35 1
    38   21   36 1
    39   21   37 1
@<TRIPOS>MOLECULE
ZINC66590369
   43    45     0     0     0
SMALL
USER_CHARGES

@<TRIPOS>ATOM
      1 C1         -0.0299    1.5453    0.0873 C.3       1 <0>        -0.1461
      2 C2         -0.0111    0.0157    0.0586 C.3       1 <0>        -0.1065
      3 H1          0.4880   -0.3251   -0.8485 H         1 <0>         0.0747
      4 C3         -1.4469   -0.5133    0.0812 C.3       1 <0>        -0.1113
      5 C4         -1.4301   -2.0424    0.0195 C.3       1 <0>        -0.1063
      6 H2         -0.9175   -2.3642   -0.8870 H         1 <0>         0.0745
      7 C5         -0.6934   -2.5908    1.2456 C.3       1 <0>         0.1045
      8 N1          0.6389   -1.9748    1.3115 N.am      1 <0>        -0.6038
      9 C6          0.7424   -0.5094    1.2847 C.3       1 <0>         0.1159
     10 C7          1.7456   -2.7395    1.3950 C.2       1 <0>         0.5743
     11 O1          2.8458   -2.2244    1.3427 O.2       1 <0>        -0.5112
     12 C8          1.6221   -4.2016    1.5498 C.ar      1 <0>        -0.1257
     13 C9          0.8510   -4.7350    2.5863 C.ar      1 <0>        -0.0198
     14 C10         0.7383   -6.1006    2.7271 C.ar      1 <0>        -0.0513
     15 C11         1.3870   -6.9503    1.8467 C.ar      1 <0>        -0.0353
     16 C12         2.1555   -6.4369    0.8139 C.ar      1 <0>         0.0534
     17 C13         2.2726   -5.0611    0.6550 C.ar      1 <0>         0.1507
     18 O2          3.0108   -4.5369   -0.3573 O.3       1 <0>        -0.2789
     19 C14         3.9415   -5.4162   -0.9981 C.3       1 <0>         0.0147
     20 C15         3.2274   -6.7435   -1.2873 C.3       1 <0>         0.0174
     21 O3          2.7867   -7.2917   -0.0372 O.3       1 <0>        -0.2917
     22 N2         -0.0798   -6.6626    3.8252 N.pl3     1 <0>         0.0382
     23 O4         -0.6471   -5.9236    4.5957 O.2       1 <0>        -0.1502
     24 O5         -0.1808   -7.8608    3.9515 O.3       1 <0>        -0.1485
     25 C16        -2.8666   -2.5689    0.0082 C.3       1 <0>        -0.1473
     26 H3          0.9930    1.9216    0.0724 H         1 <0>         0.0591
     27 H4         -0.5671    1.9185   -0.7847 H         1 <0>         0.0605
     28 H5         -0.5290    1.8856    0.9946 H         1 <0>         0.0586
     29 H6         -1.9378   -0.1924    1.0000 H         1 <0>         0.0683
     30 H7         -1.9919   -0.1212   -0.7775 H         1 <0>         0.0695
     31 H8         -1.2539   -2.3468    2.1480 H         1 <0>         0.0791
     32 H9         -0.5919   -3.6725    1.1573 H         1 <0>         0.0810
     33 H10         1.7908   -0.2177    1.2220 H         1 <0>         0.0960
     34 H11         0.2995   -0.0957    2.1907 H         1 <0>         0.0739
     35 H12         0.3441   -4.0769    3.2765 H         1 <0>         0.1675
     36 H13         1.2931   -8.0196    1.9655 H         1 <0>         0.1716
     37 H14         4.2837   -4.9716   -1.9326 H         1 <0>         0.1360
     38 H15         4.7930   -5.5925   -0.3408 H         1 <0>         0.0914
     39 H16         2.3727   -6.5664   -1.9402 H         1 <0>         0.0877
     40 H17         3.9192   -7.4364   -1.7662 H         1 <0>         0.1363
     41 H18        -3.3907   -2.1761   -0.8631 H         1 <0>         0.0622
     42 H19        -2.8540   -3.6579   -0.0358 H         1 <0>         0.0565
     43 H20        -3.3784   -2.2478    0.9154 H         1 <0>         0.0607
@<TRIPOS>BOND
     1    1    2 1
     2    1   26 1
     3    1   27 1
     4    1   28 1
     5    2    3 1
     6    2    9 1
     7    2    4 1
     8    4    5 1
     9    4   29 1
    10    4   30 1
    11    5    6 1
    12    5    7 1
    13    5   25 1
    14    7    8 1
    15    7   31 1
    16    7   32 1
    17    8    9 1
    18    8   10 am
    19    9   33 1
    20    9   34 1
    21   10   11 2
    22   10   12 1
    23   12   17 ar
    24   12   13 ar
    25   13   14 ar
    26   13   35 1
    27   14   15 ar
    28   14   22 1
    29   15   16 ar
    30   15   36 1
    31   16   21 1
    32   16   17 ar
    33   17   18 1
    34   18   19 1
    35   19   20 1
    36   19   37 1
    37   19   38 1
    38   20   21 1
    39   20   39 1
    40   20   40 1
    41   22   23 2
    42   22   24 1
    43   25   41 1
    44   25   42 1
    45   25   43 1
@<TRIPOS>MOLECULE
ZINC04106811
   23    25     0     0     0
SMALL
USER_CHARGES
4-methylsulfanylbenzofurano[2,3-e]pyrimidine
@<TRIPOS>ATOM
      1 C1         -3.1744    9.1809    0.0828 C.3       1 <0>        -0.1428
      2 S1         -1.6921    8.1424    0.0620 S.3       1 <0>        -0.0198
      3 C2         -2.4372    6.5457    0.0609 C.ar      1 <0>         0.1820
      4 C3         -1.6468    5.3892    0.0465 C.ar      1 <0>        -0.0105
      5 C4         -2.2995    4.1518    0.0460 C.ar      1 <0>         0.1554
      6 C5         -1.2310    3.1388    0.0302 C.ar      1 <0>        -0.1300
      7 C6         -1.2163    1.7469    0.0173 C.ar      1 <0>        -0.0355
      8 C7         -0.0126    1.0758    0.0080 C.ar      1 <0>        -0.1393
      9 C8          1.1797    1.7836    0.0004 C.ar      1 <0>        -0.0635
     10 C9          1.1778    3.1619    0.0073 C.ar      1 <0>        -0.1158
     11 C10        -0.0260    3.8573    0.0226 C.ar      1 <0>         0.1009
     12 O1         -0.3150    5.1770    0.0324 O.3       1 <0>        -0.1762
     13 N1         -3.6298    4.1126    0.0589 N.ar      1 <0>        -0.4834
     14 C11        -4.3320    5.2261    0.0722 C.ar      1 <0>         0.3019
     15 N2         -3.7604    6.4156    0.0733 N.ar      1 <0>        -0.4992
     16 H1         -2.8823   10.2310    0.0856 H         1 <0>         0.1086
     17 H2         -3.7759    8.9734   -0.8022 H         1 <0>         0.0939
     18 H3         -3.7577    8.9637    0.9777 H         1 <0>         0.0939
     19 H4         -2.1446    1.1949    0.0186 H         1 <0>         0.1388
     20 H5          0.0021   -0.0041    0.0020 H         1 <0>         0.1403
     21 H6          2.1185    1.2500   -0.0107 H         1 <0>         0.1452
     22 H7          2.1128    3.7025    0.0013 H         1 <0>         0.1430
     23 H8         -5.4102    5.1641    0.0822 H         1 <0>         0.2122
@<TRIPOS>BOND
     1    1    2 1
     2    1   16 1
     3    1   17 1
     4    1   18 1
     5    2    3 1
     6    3   15 ar
     7    3    4 ar
     8    4   12 1
     9    4    5 ar
    10    5    6 1
    11    5   13 ar
    12    6   11 ar
    13    6    7 ar
    14    7    8 ar
    15    7   19 1
    16    8    9 ar
    17    8   20 1
    18    9   10 ar
    19    9   21 1
    20   10   11 ar
    21   10   22 1
    22   11   12 1
    23   13   14 ar
    24   14   15 ar
    25   14   23 1
@<TRIPOS>MOLECULE
ZINC25503347
   17    18     0     0     0
SMALL
USER_CHARGES
3,4-dichloropyrido[1,2-a]pyrimidin-2-one
@<TRIPOS>ATOM
      1 C1          1.1601    2.0892    0.0022 C.2       1 <0>        -0.0294
      2 C2          2.3712    1.3827   -0.0140 C.2       1 <0>        -0.1503
      3 C3          2.3694    0.0312   -0.0217 C.2       1 <0>         0.0706
      4 N1          1.1983   -0.6647   -0.0133 N.pl3     1 <0>        -0.3974
      5 C4          0.0021   -0.0041    0.0020 C.2       1 <0>         0.4269
      6 C5         -0.0170    1.4035    0.0098 C.2       1 <0>        -0.1307
      7 N2         -1.1471   -0.6753    0.0093 N.2       1 <0>        -0.5672
      8 C6         -1.1608   -2.0083    0.0023 C.2       1 <0>         0.5143
      9 O1         -2.2246   -2.6116    0.0087 O.2       1 <0>        -0.4771
     10 C7          0.0652   -2.7247   -0.0131 C.2       1 <0>        -0.1280
     11 C8          1.2273   -2.0360   -0.0204 C.2       1 <0>         0.1445
     12 Cl1         2.7445   -2.8794   -0.0387 Cl        1 <0>         0.0257
     13 Cl2         0.0704   -4.4606   -0.0218 Cl        1 <0>         0.0145
     14 H1          1.1605    3.1692    0.0075 H         1 <0>         0.1601
     15 H2          3.3080    1.9201   -0.0204 H         1 <0>         0.1671
     16 H3          3.3077   -0.5035   -0.0342 H         1 <0>         0.1805
     17 H4         -0.9570    1.9353    0.0171 H         1 <0>         0.1758
@<TRIPOS>BOND
     1    1    6 2
     2    1    2 1
     3    1   14 1
     4    2    3 2
     5    2   15 1
     6    3    4 1
     7    3   16 1
     8    4   11 1
     9    4    5 1
    10    5    6 1
    11    5    7 2
    12    6   17 1
    13    7    8 1
    14    8    9 2
    15    8   10 1
    16   10   11 2
    17   10   13 1
    18   11   12 1
@<TRIPOS>MOLECULE
ZINC39102488
   13    13     0     0     0
SMALL
USER_CHARGES

@<TRIPOS>ATOM
      1 C1         -0.0187    1.5258    0.0104 C.3       1 <0>        -0.1512
      2 C2          0.0021   -0.0041    0.0020 C.3       1 <0>        -0.0672
      3 C3          0.7074   -0.4901   -1.2379 C.2       1 <0>         0.0965
      4 C4          0.0880   -0.7580   -2.4755 C.2       1 <0>         0.0372
      5 N1          0.9837   -1.1595   -3.3279 N.2       1 <0>        -0.2274
      6 O1          2.2346   -1.1649   -2.6585 O.3       1 <0>         0.0428
      7 N2          1.9823   -0.7222   -1.3344 N.2       1 <0>        -0.2585
      8 I1         -1.9567   -0.5432   -2.8780 I         1 <0>         0.1144
      9 H1          1.0039    1.9031    0.0027 H         1 <0>         0.0644
     10 H2         -0.5459    1.8868   -0.8726 H         1 <0>         0.0626
     11 H3         -0.5289    1.8773    0.9072 H         1 <0>         0.0814
     12 H4          0.5293   -0.3651    0.8851 H         1 <0>         0.1038
     13 H5         -1.0205   -0.3814    0.0098 H         1 <0>         0.1012
@<TRIPOS>BOND
     1    1    2 1
     2    1    9 1
     3    1   10 1
     4    1   11 1
     5    2    3 1
     6    2   12 1
     7    2   13 1
     8    3    7 2
     9    3    4 1
    10    4    5 2
    11    4    8 1
    12    5    6 1
    13    6    7 1
@<TRIPOS>MOLECULE
ZINC44857594
   33    34     0     0     0
SMALL
USER_CHARGES

@<TRIPOS>ATOM
      1 C1         -0.0187    1.5258    0.0104 C.3       1 <0>        -0.1539
      2 C2          0.0021   -0.0041    0.0020 C.3       1 <0>         0.1787
      3 H1         -1.0143   -0.3973    0.0221 H         1 <0>         0.0847
      4 C3          0.7565   -0.5254   -1.2400 C.3       1 <0>        -0.1714
      5 H2          1.2162    0.2118   -1.8983 H         1 <0>         0.1229
      6 C4          0.3673   -1.8959   -1.7976 C.3       1 <0>        -0.1364
      7 C5          1.5272   -1.7672   -0.7457 C.3       1 <0>        -0.1816
      8 H3          2.5562   -1.9626   -1.0473 H         1 <0>         0.1257
      9 C6          1.1709   -1.8875    0.7517 C.3       1 <0>         0.1306
     10 N1          0.7771   -0.5165    1.1559 N.am      1 <0>        -0.6092
     11 C7          1.0612    0.1201    2.3093 C.2       1 <0>         0.6752
     12 O1          0.6644    1.2542    2.4910 O.2       1 <0>        -0.5592
     13 O2          1.7846   -0.5004    3.2603 O.3       1 <0>        -0.3575
     14 C8          2.0480    0.2339    4.4575 C.3       1 <0>         0.1346
     15 C9          0.7246    0.6093    5.1272 C.3       1 <0>        -0.1857
     16 C10         2.8764   -0.6279    5.4125 C.3       1 <0>        -0.1404
     17 C11         2.8251    1.5065    4.1148 C.3       1 <0>        -0.1857
     18 H4          1.0039    1.9031    0.0027 H         1 <0>         0.0587
     19 H5         -0.5459    1.8868   -0.8726 H         1 <0>         0.0638
     20 H6         -0.5289    1.8773    0.9072 H         1 <0>         0.0838
     21 H7         -0.5837   -2.3186   -1.4734 H         1 <0>         0.0996
     22 H8          0.6545   -2.1203   -2.8249 H         1 <0>         0.1080
     23 H9          0.3377   -2.5765    0.8900 H         1 <0>         0.0778
     24 H10         2.0379   -2.2186    1.3233 H         1 <0>         0.0905
     25 H11         0.1710   -0.2973    5.3714 H         1 <0>         0.0587
     26 H12         0.9255    1.1694    6.0405 H         1 <0>         0.0704
     27 H13         0.1344    1.2233    4.4469 H         1 <0>         0.0875
     28 H14         3.8193   -0.8953    4.9354 H         1 <0>         0.0661
     29 H15         3.0774   -0.0678    6.3258 H         1 <0>         0.0812
     30 H16         2.3228   -1.5345    5.6567 H         1 <0>         0.0664
     31 H17         2.2350    2.1204    3.4344 H         1 <0>         0.0876
     32 H18         3.0261    2.0666    5.0280 H         1 <0>         0.0703
     33 H19         3.7680    1.2390    3.6377 H         1 <0>         0.0583
@<TRIPOS>BOND
     1    1    2 1
     2    1   18 1
     3    1   19 1
     4    1   20 1
     5    2    3 1
     6    2   10 1
     7    2    4 1
     8    4    5 1
     9    4    7 1
    10    4    6 1
    11    6    7 1
    12    6   21 1
    13    6   22 1
    14    7    8 1
    15    7    9 1
    16    9   10 1
    17    9   23 1
    18    9   24 1
    19   10   11 am
    20   11   12 2
    21   11   13 1
    22   13   14 1
    23   14   15 1
    24   14   16 1
    25   14   17 1
    26   15   25 1
    27   15   26 1
    28   15   27 1
    29   16   28 1
    30   16   29 1
    31   16   30 1
    32   17   31 1
    33   17   32 1
    34   17   33 1
@<TRIPOS>MOLECULE
ZINC61815205
   33    34     0     0     0
SMALL
USER_CHARGES

@<TRIPOS>ATOM
      1 C1         -0.0185    1.5255    0.0373 C.3       1 <0>        -0.1488
      2 C2          0.0021   -0.0042    0.0150 C.3       1 <0>        -0.0933
      3 H1         -1.0206   -0.3812    0.0112 H         1 <0>         0.0750
      4 C3          0.7278   -0.4860   -1.2433 C.3       1 <0>        -0.1318
      5 C4          0.7163   -2.0174   -1.2798 C.3       1 <0>         0.1157
      6 N1          1.2851   -2.5247   -0.0236 N.pl3     1 <0>        -0.6074
      7 C5          0.7201   -2.0543    1.2485 C.3       1 <0>         0.1401
      8 H2          1.3222   -2.4286    2.0764 H         1 <0>         0.0919
      9 C6          0.7319   -0.5224    1.2564 C.3       1 <0>        -0.1263
     10 C7         -0.7169   -2.5601    1.3896 C.3       1 <0>        -0.1660
     11 C8          2.3390   -3.4339   -0.0384 C.ar      1 <0>         0.2617
     12 C9          2.8043   -3.9692   -1.2396 C.ar      1 <0>        -0.2322
     13 C10         3.8525   -4.8688   -1.2176 C.ar      1 <0>         0.1517
     14 N2          4.4159   -5.2263   -0.0820 N.ar      1 <0>        -0.4975
     15 C11         4.0062   -4.7426    1.0861 C.ar      1 <0>         0.2347
     16 C12         2.9591   -3.8276    1.1457 C.ar      1 <0>        -0.2032
     17 C13         4.6511   -5.1627    2.2936 C.1       1 <0>         0.2659
     18 N3          5.1626   -5.4960    3.2516 N.1       1 <0>        -0.3882
     19 H3          1.0041    1.9027    0.0412 H         1 <0>         0.0548
     20 H4         -0.5387    1.8948   -0.8465 H         1 <0>         0.0564
     21 H5         -0.5358    1.8688    0.9332 H         1 <0>         0.0563
     22 H6          0.2214   -0.0972   -2.1267 H         1 <0>         0.0769
     23 H7          1.7580   -0.1302   -1.2279 H         1 <0>         0.0687
     24 H8         -0.3086   -2.3727   -1.3865 H         1 <0>         0.0689
     25 H9          1.3160   -2.3674   -2.1200 H         1 <0>         0.0867
     26 H10         1.7620   -0.1662    1.2481 H         1 <0>         0.0689
     27 H11         0.2283   -0.1596    2.1524 H         1 <0>         0.0769
     28 H12        -0.7218   -3.6500    1.3720 H         1 <0>         0.0602
     29 H13        -1.1342   -2.2101    2.3338 H         1 <0>         0.0697
     30 H14        -1.3185   -2.1807    0.5637 H         1 <0>         0.0632
     31 H15         2.3498   -3.6836   -2.1767 H         1 <0>         0.1420
     32 H16         4.2151   -5.2855   -2.1456 H         1 <0>         0.1667
     33 H17         2.6298   -3.4320    2.0952 H         1 <0>         0.1420
@<TRIPOS>BOND
     1    1    2 1
     2    1   19 1
     3    1   20 1
     4    1   21 1
     5    2    3 1
     6    2    9 1
     7    2    4 1
     8    4    5 1
     9    4   22 1
    10    4   23 1
    11    5    6 1
    12    5   24 1
    13    5   25 1
    14    6    7 1
    15    6   11 1
    16    7    8 1
    17    7    9 1
    18    7   10 1
    19    9   26 1
    20    9   27 1
    21   10   28 1
    22   10   29 1
    23   10   30 1
    24   11   16 ar
    25   11   12 ar
    26   12   13 ar
    27   12   31 1
    28   13   14 ar
    29   13   32 1
    30   14   15 ar
    31   15   16 ar
    32   15   17 1
    33   16   33 1
    34   17   18 3
@<TRIPOS>MOLECULE
ZINC00547557
   43    46     0     0     0
SMALL
USER_CHARGES
9-[(4-ethyl-4-methyl-1,3-dioxolan-2-yl)methyl]carbazole
@<TRIPOS>ATOM
      1 C1          2.8747    5.8374    0.8397 C.3       1 <0>        -0.1503
      2 C2          3.5330    4.6310    0.1674 C.3       1 <0>        -0.1251
      3 C3          2.5041    3.9085   -0.7045 C.3       1 <0>         0.0779
      4 C4          3.1288    2.6451   -1.3361 C.3       1 <0>         0.0224
      5 O1          2.0526    1.6780   -1.2594 O.3       1 <0>        -0.3623
      6 C5          1.4176    1.9904   -0.0008 C.3       1 <0>         0.2143
      7 H1          1.9836    1.5551    0.8228 H         1 <0>         0.0773
      8 O2          1.4163    3.4244    0.1036 O.3       1 <0>        -0.3679
      9 C6         -0.0178    1.4608    0.0101 C.3       1 <0>         0.1194
     10 N1          0.0021   -0.0041    0.0020 N.pl3     1 <0>        -0.5005
     11 C7         -0.0040   -0.7887   -1.1374 C.ar      1 <0>         0.1510
     12 C8         -0.0152   -0.4726   -2.4926 C.ar      1 <0>        -0.1283
     13 C9         -0.0101   -1.4778   -3.4356 C.ar      1 <0>        -0.0864
     14 C10         0.0122   -2.8086   -3.0478 C.ar      1 <0>        -0.1495
     15 C11         0.0290   -3.1415   -1.7104 C.ar      1 <0>        -0.0642
     16 C12         0.0240   -2.1358   -0.7469 C.ar      1 <0>        -0.1054
     17 C13         0.0381   -2.1437    0.7275 C.ar      1 <0>        -0.1016
     18 C14         0.0236   -0.8008    1.1328 C.ar      1 <0>         0.1405
     19 C15         0.0324   -0.4995    2.4913 C.ar      1 <0>        -0.1452
     20 C16         0.0546   -1.5147    3.4232 C.ar      1 <0>        -0.0829
     21 C17         0.0683   -2.8413    3.0207 C.ar      1 <0>        -0.1507
     22 C18         0.0604   -3.1598    1.6797 C.ar      1 <0>        -0.0609
     23 C19         1.9801    4.8462   -1.7940 C.3       1 <0>        -0.1533
     24 H2          2.5019    6.5202    0.0762 H         1 <0>         0.0582
     25 H3          2.0454    5.4994    1.4610 H         1 <0>         0.0616
     26 H4          3.6078    6.3521    1.4608 H         1 <0>         0.0564
     27 H5          3.9058    3.9481    0.9309 H         1 <0>         0.0681
     28 H6          4.3624    4.9690   -0.4539 H         1 <0>         0.0785
     29 H7          3.4084    2.8302   -2.3732 H         1 <0>         0.1106
     30 H8          3.9895    2.3097   -0.7574 H         1 <0>         0.0758
     31 H9         -0.5450    1.8219   -0.8730 H         1 <0>         0.1019
     32 H10        -0.5280    1.8123    0.9069 H         1 <0>         0.1089
     33 H11        -0.0330    0.5609   -2.8055 H         1 <0>         0.1225
     34 H12        -0.0238   -1.2265   -4.4859 H         1 <0>         0.1274
     35 H13         0.0161   -3.5872   -3.7962 H         1 <0>         0.1260
     36 H14         0.0463   -4.1789   -1.4105 H         1 <0>         0.1243
     37 H15         0.0215    0.5306    2.8156 H         1 <0>         0.1215
     38 H16         0.0610   -1.2748    4.4762 H         1 <0>         0.1288
     39 H17         0.0849   -3.6279    3.7605 H         1 <0>         0.1270
     40 H18         0.0715   -4.1939    1.3684 H         1 <0>         0.1254
     41 H19         1.4865    5.7009   -1.3313 H         1 <0>         0.0719
     42 H20         2.8130    5.1946   -2.4049 H         1 <0>         0.0725
     43 H21         1.2677    4.3113   -2.4220 H         1 <0>         0.0646
@<TRIPOS>BOND
     1    1    2 1
     2    1   24 1
     3    1   25 1
     4    1   26 1
     5    2    3 1
     6    2   27 1
     7    2   28 1
     8    3    8 1
     9    3    4 1
    10    3   23 1
    11    4    5 1
    12    4   29 1
    13    4   30 1
    14    5    6 1
    15    6    7 1
    16    6    8 1
    17    6    9 1
    18    9   10 1
    19    9   31 1
    20    9   32 1
    21   10   18 1
    22   10   11 1
    23   11   16 ar
    24   11   12 ar
    25   12   13 ar
    26   12   33 1
    27   13   14 ar
    28   13   34 1
    29   14   15 ar
    30   14   35 1
    31   15   16 ar
    32   15   36 1
    33   16   17 1
    34   17   22 ar
    35   17   18 ar
    36   18   19 ar
    37   19   20 ar
    38   19   37 1
    39   20   21 ar
    40   20   38 1
    41   21   22 ar
    42   21   39 1
    43   22   40 1
    44   23   41 1
    45   23   42 1
    46   23   43 1
@<TRIPOS>MOLECULE
ZINC30823143
   39    42     0     0     0
SMALL
USER_CHARGES
2-(1-naphthylmethyl)-5-(o-tolyl)-1,3,4-oxadiazole
@<TRIPOS>ATOM
      1 C1         -2.6428    0.0963    0.0158 C.3       1 <0>        -0.1178
      2 C2         -2.4900    1.5955    0.0236 C.ar      1 <0>        -0.0289
      3 C3         -3.6079    2.4044    0.0340 C.ar      1 <0>        -0.1238
      4 C4         -3.4693    3.7808    0.0413 C.ar      1 <0>        -0.0874
      5 C5         -2.2106    4.3556    0.0381 C.ar      1 <0>        -0.1287
      6 C6         -1.0850    3.5582    0.0321 C.ar      1 <0>        -0.0785
      7 C7         -1.2178    2.1688    0.0199 C.ar      1 <0>        -0.0358
      8 C8         -0.0157    1.3081    0.0092 C.2       1 <0>         0.2118
      9 N1          0.0021   -0.0041    0.0020 N.2       1 <0>        -0.2711
     10 N2          1.2224   -0.4117   -0.0118 N.2       1 <0>        -0.2785
     11 C9          2.0250    0.6158   -0.0140 C.2       1 <0>         0.1719
     12 O1          1.2661    1.7252   -0.0008 O.3       1 <0>        -0.2174
     13 C10         3.5312    0.5683   -0.0286 C.3       1 <0>         0.0143
     14 C11         4.0197    0.5595   -1.4542 C.ar      1 <0>        -0.0906
     15 C12         4.3014   -0.6195   -2.0737 C.ar      1 <0>        -0.0867
     16 C13         4.7539   -0.6475   -3.3911 C.ar      1 <0>        -0.1181
     17 C14         4.9271    0.5033   -4.0973 C.ar      1 <0>        -0.0953
     18 C15         4.6463    1.7396   -3.4916 C.ar      1 <0>        -0.0543
     19 C16         4.1811    1.7677   -2.1529 C.ar      1 <0>        -0.0391
     20 C17         3.9043    3.0046   -1.5457 C.ar      1 <0>        -0.1131
     21 C18         4.0783    4.1551   -2.2514 C.ar      1 <0>        -0.1081
     22 C19         4.5316    4.1272   -3.5691 C.ar      1 <0>        -0.1172
     23 C20         4.8133    2.9486   -4.1885 C.ar      1 <0>        -0.1022
     24 H1         -3.7117   -0.1633    0.0202 H         1 <0>         0.0669
     25 H2         -2.1592   -0.3262    0.9089 H         1 <0>         0.0833
     26 H3         -2.1691   -0.3158   -0.8874 H         1 <0>         0.0827
     27 H4         -4.5931    1.9620    0.0369 H         1 <0>         0.1353
     28 H5         -4.3474    4.4095    0.0498 H         1 <0>         0.1317
     29 H6         -2.1092    5.4308    0.0441 H         1 <0>         0.1329
     30 H7         -0.1031    4.0080    0.0334 H         1 <0>         0.1308
     31 H8          3.9309    1.4519    0.4905 H         1 <0>         0.1107
     32 H9          3.8743   -0.3435    0.4822 H         1 <0>         0.1274
     33 H10         4.1725   -1.5471   -1.5357 H         1 <0>         0.1307
     34 H11         4.9709   -1.5964   -3.8590 H         1 <0>         0.1287
     35 H12         5.2783    0.4663   -5.1179 H         1 <0>         0.1301
     36 H13         3.5524    3.0417   -0.5253 H         1 <0>         0.1252
     37 H14         3.8615    5.1041   -1.7835 H         1 <0>         0.1244
     38 H15         4.6608    5.0548   -4.1069 H         1 <0>         0.1250
     39 H16         5.1638    2.9424   -5.2100 H         1 <0>         0.1291
@<TRIPOS>BOND
     1    1    2 1
     2    1   24 1
     3    1   25 1
     4    1   26 1
     5    2    7 ar
     6    2    3 ar
     7    3    4 ar
     8    3   27 1
     9    4    5 ar
    10    4   28 1
    11    5    6 ar
    12    5   29 1
    13    6    7 ar
    14    6   30 1
    15    7    8 1
    16    8   12 1
    17    8    9 2
    18    9   10 1
    19   10   11 2
    20   11   12 1
    21   11   13 1
    22   13   14 1
    23   13   31 1
    24   13   32 1
    25   14   19 ar
    26   14   15 ar
    27   15   16 ar
    28   15   33 1
    29   16   17 ar
    30   16   34 1
    31   17   18 ar
    32   17   35 1
    33   18   23 ar
    34   18   19 ar
    35   19   20 ar
    36   20   21 ar
    37   20   36 1
    38   21   22 ar
    39   21   37 1
    40   22   23 ar
    41   22   38 1
    42   23   39 1
@<TRIPOS>MOLECULE
ZINC37149241
   38    40     0     0     0
SMALL
USER_CHARGES

@<TRIPOS>ATOM
      1 C1          2.4628    1.4005    3.2252 C.ar      1 <0>        -0.1538
      2 C2          2.5310    0.0196    3.2376 C.ar      1 <0>        -0.0825
      3 C3          2.9129   -0.6645    2.0999 C.ar      1 <0>        -0.1950
      4 C4          3.2278    0.0354    0.9439 C.ar      1 <0>         0.1203
      5 C5          3.1581    1.4212    0.9341 C.ar      1 <0>        -0.1473
      6 C6          2.7760    2.1004    2.0746 C.ar      1 <0>        -0.0824
      7 O1          3.6042   -0.6351   -0.1765 O.3       1 <0>        -0.2560
      8 C7          3.6714   -1.9917   -0.1162 C.ar      1 <0>         0.0446
      9 C8          2.5412   -2.7543   -0.3724 C.ar      1 <0>        -0.0837
     10 C9          2.6096   -4.1324   -0.3111 C.ar      1 <0>        -0.1950
     11 C10         3.8083   -4.7539    0.0067 C.ar      1 <0>         0.1367
     12 C11         4.9383   -3.9915    0.2629 C.ar      1 <0>        -0.1365
     13 C12         4.8715   -2.6136    0.1961 C.ar      1 <0>        -0.0816
     14 O2          3.8754   -6.1107    0.0675 O.3       1 <0>        -0.3012
     15 C13         2.6486   -6.8282   -0.0815 C.3       1 <0>         0.0851
     16 H1          1.8293   -6.2826    0.3865 H         1 <0>         0.1010
     17 C14         2.3463   -7.0800   -1.5796 C.3       1 <0>        -0.1520
     18 C15         1.4099   -8.3130   -1.5369 C.3       1 <0>        -0.1226
     19 C16         1.9860   -9.1864   -0.4033 C.3       1 <0>        -0.1153
     20 C17         2.7725   -8.2412    0.5252 C.3       1 <0>         0.0093
     21 H2          2.3436   -8.2562    1.5272 H         1 <0>         0.1268
     22 C18         4.1867   -8.6462    0.5753 C.1       1 <0>         0.2141
     23 N1          5.2782   -8.9588    0.6140 N.1       1 <0>        -0.4204
     24 H3          2.1600    1.9332    4.1146 H         1 <0>         0.1251
     25 H4          2.2858   -0.5247    4.1376 H         1 <0>         0.1254
     26 H5          2.9667   -1.7431    2.1103 H         1 <0>         0.1270
     27 H6          3.4030    1.9684    0.0357 H         1 <0>         0.1322
     28 H7          2.7219    3.1790    2.0676 H         1 <0>         0.1312
     29 H8          1.6079   -2.2704   -0.6195 H         1 <0>         0.1350
     30 H9          1.7297   -4.7261   -0.5103 H         1 <0>         0.1393
     31 H10         5.8715   -4.4755    0.5104 H         1 <0>         0.1389
     32 H11         5.7526   -2.0201    0.3908 H         1 <0>         0.1391
     33 H12         1.8368   -6.2230   -2.0202 H         1 <0>         0.0823
     34 H13         3.2617   -7.3089   -2.1253 H         1 <0>         0.0839
     35 H14         0.3895   -8.0091   -1.3033 H         1 <0>         0.0785
     36 H15         1.4416   -8.8492   -2.4853 H         1 <0>         0.0802
     37 H16         1.1761   -9.6618    0.1501 H         1 <0>         0.0898
     38 H17         2.6511   -9.9443   -0.8172 H         1 <0>         0.0794
@<TRIPOS>BOND
     1    1    6 ar
     2    1    2 ar
     3    1   24 1
     4    2    3 ar
     5    2   25 1
     6    3    4 ar
     7    3   26 1
     8    4    5 ar
     9    4    7 1
    10    5    6 ar
    11    5   27 1
    12    6   28 1
    13    7    8 1
    14    8   13 ar
    15    8    9 ar
    16    9   10 ar
    17    9   29 1
    18   10   11 ar
    19   10   30 1
    20   11   12 ar
    21   11   14 1
    22   12   13 ar
    23   12   31 1
    24   13   32 1
    25   14   15 1
    26   15   16 1
    27   15   20 1
    28   15   17 1
    29   17   18 1
    30   17   33 1
    31   17   34 1
    32   18   19 1
    33   18   35 1
    34   18   36 1
    35   19   20 1
    36   19   37 1
    37   19   38 1
    38   20   21 1
    39   20   22 1
    40   22   23 3
@<TRIPOS>MOLECULE
ZINC43407572
   39    41     0     0     0
SMALL
USER_CHARGES

@<TRIPOS>ATOM
      1 C1         -0.2441    1.7189   -0.2069 C.3       1 <0>        -0.1429
      2 C2         -0.0988    0.1981   -0.1237 C.3       1 <0>        -0.0593
      3 C3          0.7016   -0.1700    1.1272 C.3       1 <0>        -0.1412
      4 C4         -1.4649   -0.4338   -0.0500 C.ar      1 <0>        -0.0661
      5 C5         -2.3174   -0.1181    0.9904 C.ar      1 <0>        -0.1057
      6 C6         -3.5708   -0.6974    1.0587 C.ar      1 <0>        -0.1076
      7 C7         -3.9749   -1.5937    0.0860 C.ar      1 <0>        -0.1123
      8 C8         -3.1265   -1.9126   -0.9561 C.ar      1 <0>        -0.1072
      9 C9         -1.8698   -1.3285   -1.0298 C.ar      1 <0>         0.0870
     10 O1         -1.0351   -1.6367   -2.0570 O.3       1 <0>        -0.2381
     11 C10        -0.1327   -2.6292   -1.8674 C.ar      1 <0>         0.3699
     12 C11         0.8158   -2.9091   -2.8636 C.ar      1 <0>        -0.0960
     13 C12         1.7356   -3.9392   -2.6419 C.ar      1 <0>         0.0169
     14 C13         1.6708   -4.6389   -1.4481 C.ar      1 <0>        -0.1843
     15 C14         0.7081   -4.3065   -0.5120 C.ar      1 <0>         0.1924
     16 N1         -0.1475   -3.3233   -0.7448 N.ar      1 <0>        -0.5156
     17 C15         0.8446   -5.2093    0.6976 C.3       1 <0>        -0.0764
     18 C16         1.6976   -6.4027    0.2185 C.3       1 <0>        -0.1194
     19 C17         2.5160   -5.7836   -0.9344 C.3       1 <0>        -0.0740
     20 C18         0.8408   -2.1562   -4.0814 C.1       1 <0>         0.2609
     21 N2          0.8606   -1.5589   -5.0476 N.1       1 <0>        -0.4008
     22 H1          0.7440    2.1760   -0.2603 H         1 <0>         0.0605
     23 H2         -0.8143    1.9812   -1.0981 H         1 <0>         0.0569
     24 H3         -0.7655    2.0831    0.6783 H         1 <0>         0.0591
     25 H4          0.4227   -0.1660   -1.0090 H         1 <0>         0.0739
     26 H5          0.8052   -1.2535    1.1864 H         1 <0>         0.0564
     27 H6          1.6897    0.2870    1.0738 H         1 <0>         0.0584
     28 H7          0.1802    0.1941    2.0124 H         1 <0>         0.0589
     29 H8         -2.0043    0.5815    1.7513 H         1 <0>         0.1291
     30 H9         -4.2354   -0.4499    1.8731 H         1 <0>         0.1282
     31 H10        -4.9545   -2.0448    0.1416 H         1 <0>         0.1301
     32 H11        -3.4423   -2.6128   -1.7153 H         1 <0>         0.1278
     33 H12         2.4799   -4.1838   -3.3852 H         1 <0>         0.1531
     34 H13         1.3513   -4.6832    1.5067 H         1 <0>         0.0982
     35 H14        -0.1364   -5.5532    1.0253 H         1 <0>         0.0919
     36 H15         2.3541   -6.7540    1.0146 H         1 <0>         0.0877
     37 H16         1.0633   -7.2104   -0.1467 H         1 <0>         0.0791
     38 H17         2.6758   -6.5194   -1.7226 H         1 <0>         0.0831
     39 H18         3.4711   -5.4119   -0.5634 H         1 <0>         0.0874
@<TRIPOS>BOND
     1    1    2 1
     2    1   22 1
     3    1   23 1
     4    1   24 1
     5    2    3 1
     6    2    4 1
     7    2   25 1
     8    3   26 1
     9    3   27 1
    10    3   28 1
    11    4    9 ar
    12    4    5 ar
    13    5    6 ar
    14    5   29 1
    15    6    7 ar
    16    6   30 1
    17    7    8 ar
    18    7   31 1
    19    8    9 ar
    20    8   32 1
    21    9   10 1
    22   10   11 1
    23   11   16 ar
    24   11   12 ar
    25   12   13 ar
    26   12   20 1
    27   13   14 ar
    28   13   33 1
    29   14   19 1
    30   14   15 ar
    31   15   16 ar
    32   15   17 1
    33   17   18 1
    34   17   34 1
    35   17   35 1
    36   18   19 1
    37   18   36 1
    38   18   37 1
    39   19   38 1
    40   19   39 1
    41   20   21 3
@<TRIPOS>MOLECULE
ZINC62399087
   39    41     0     0     0
SMALL
USER_CHARGES

@<TRIPOS>ATOM
      1 C1         -0.4205    1.4463    0.4142 C.3       1 <0>        -0.1200
      2 C2         -0.2300   -0.0462    0.3293 C.ar      1 <0>        -0.0571
      3 C3          0.2346   -0.6156   -0.8428 C.ar      1 <0>        -0.1286
      4 C4          0.4108   -1.9815   -0.9271 C.ar      1 <0>        -0.0414
      5 C5          0.1197   -2.7886    0.1730 C.ar      1 <0>        -0.0631
      6 C6         -0.3481   -2.2081    1.3523 C.ar      1 <0>        -0.0407
      7 C7         -0.5150   -0.8405    1.4255 C.ar      1 <0>        -0.1276
      8 C8         -0.6649   -3.0725    2.5454 C.3       1 <0>        -0.1235
      9 C9          0.3058   -4.2540    0.0893 C.2       1 <0>         0.1513
     10 C10        -0.3162   -5.0959   -0.7836 C.2       1 <0>        -0.2074
     11 C11         0.1450   -6.4011   -0.5252 C.2       1 <0>         0.1477
     12 N1          1.0132   -6.3442    0.4678 N.2       1 <0>        -0.2308
     13 N2          1.1375   -5.0083    0.8696 N.pl3     1 <0>        -0.2991
     14 C12         1.9657   -4.5298    1.8921 C.ar      1 <0>         0.1421
     15 C13         2.6973   -3.3639    1.7069 C.ar      1 <0>        -0.1088
     16 C14         3.5133   -2.8946    2.7174 C.ar      1 <0>        -0.1006
     17 C15         3.6023   -3.5842    3.9128 C.ar      1 <0>        -0.1103
     18 C16         2.8755   -4.7456    4.1003 C.ar      1 <0>        -0.1036
     19 C17         2.0529   -5.2169    3.0959 C.ar      1 <0>        -0.1040
     20 C18        -0.2587   -7.5865   -1.2198 C.1       1 <0>         0.2919
     21 N3         -0.5789   -8.5269   -1.7709 N.1       1 <0>        -0.3777
     22 C19         0.9160   -2.6003   -2.2049 C.3       1 <0>        -0.1303
     23 H1          0.5019    1.9111    0.7625 H         1 <0>         0.0746
     24 H2         -0.6745    1.8368   -0.5712 H         1 <0>         0.0698
     25 H3         -1.2266    1.6705    1.1128 H         1 <0>         0.0693
     26 H4          0.4596    0.0102   -1.6938 H         1 <0>         0.1288
     27 H5         -0.8732   -0.3895    2.3392 H         1 <0>         0.1273
     28 H6          0.2159   -3.1487    3.1830 H         1 <0>         0.0756
     29 H7         -1.4843   -2.6270    3.1095 H         1 <0>         0.0736
     30 H8         -0.9554   -4.0670    2.2067 H         1 <0>         0.0646
     31 H9         -1.0348   -4.8126   -1.5384 H         1 <0>         0.1686
     32 H10         2.6284   -2.8251    0.7734 H         1 <0>         0.1300
     33 H11         4.0827   -1.9882    2.5739 H         1 <0>         0.1342
     34 H12         4.2411   -3.2151    4.7015 H         1 <0>         0.1318
     35 H13         2.9474   -5.2821    5.0348 H         1 <0>         0.1349
     36 H14         1.4818   -6.1214    3.2447 H         1 <0>         0.1343
     37 H15         2.0058   -2.6176   -2.1942 H         1 <0>         0.0731
     38 H16         0.5373   -3.6189   -2.2899 H         1 <0>         0.0777
     39 H17         0.5703   -2.0120   -3.0550 H         1 <0>         0.0738
@<TRIPOS>BOND
     1    1    2 1
     2    1   23 1
     3    1   24 1
     4    1   25 1
     5    2    7 ar
     6    2    3 ar
     7    3    4 ar
     8    3   26 1
     9    4    5 ar
    10    4   22 1
    11    5    6 ar
    12    5    9 1
    13    6    7 ar
    14    6    8 1
    15    7   27 1
    16    8   28 1
    17    8   29 1
    18    8   30 1
    19    9   13 1
    20    9   10 2
    21   10   11 1
    22   10   31 1
    23   11   12 2
    24   11   20 1
    25   12   13 1
    26   13   14 1
    27   14   19 ar
    28   14   15 ar
    29   15   16 ar
    30   15   32 1
    31   16   17 ar
    32   16   33 1
    33   17   18 ar
    34   17   34 1
    35   18   19 ar
    36   18   35 1
    37   19   36 1
    38   20   21 3
    39   22   37 1
    40   22   38 1
    41   22   39 1
@<TRIPOS>MOLECULE
ZINC04666947
   40    41     0     0     0
SMALL
USER_CHARGES
3,4,5-trimethyl-1-(2,4,6-trimethylphenyl)sulfonyl-pyrazole
@<TRIPOS>ATOM
      1 C1         -1.7750    0.4783    0.6968 C.3       1 <0>        -0.1264
      2 C2         -0.4008    0.8795    0.2258 C.ar      1 <0>        -0.0102
      3 C3         -0.1696    2.1702   -0.2119 C.ar      1 <0>        -0.1557
      4 C4          1.0910    2.5383   -0.6435 C.ar      1 <0>         0.0422
      5 C5          2.1199    1.6152   -0.6393 C.ar      1 <0>        -0.6916
      6 C6          1.8890    0.3247   -0.2007 C.ar      1 <0>         0.0336
      7 C7          0.6286   -0.0431    0.2318 C.ar      1 <0>        -0.1555
      8 C8          3.0111   -0.6812   -0.1946 C.3       1 <0>        -0.1735
      9 S1          3.7264    2.0840   -1.1906 S.o2      1 <0>         2.6929
     10 O1          3.8514    3.4771   -0.9397 O.2       1 <0>        -0.9165
     11 O2          4.6336    1.1294   -0.6568 O.2       1 <0>        -0.9275
     12 N1          3.7541    1.8950   -2.8355 N.pl3     1 <0>        -0.7362
     13 C9          4.2510    0.8335   -3.5044 C.2       1 <0>         0.1013
     14 C10         4.0810    1.0632   -4.8271 C.2       1 <0>        -0.2039
     15 C11         3.4678    2.3119   -4.9718 C.2       1 <0>         0.1177
     16 N2          3.2713    2.8115   -3.7786 N.2       1 <0>        -0.2578
     17 C12         3.0977    2.9687   -6.2767 C.3       1 <0>        -0.0824
     18 C13         4.4867    0.1395   -5.9467 C.3       1 <0>        -0.0817
     19 C14         4.8791   -0.3901   -2.8886 C.3       1 <0>        -0.1293
     20 C15         1.3429    3.9452   -1.1211 C.3       1 <0>        -0.1493
     21 H1         -2.3526    0.1011   -0.1471 H         1 <0>         0.0814
     22 H2         -1.6864   -0.3008    1.4539 H         1 <0>         0.0748
     23 H3         -2.2798    1.3447    1.1243 H         1 <0>         0.0749
     24 H4         -0.9750    2.8897   -0.2208 H         1 <0>         0.1350
     25 H5          0.4480   -1.0514    0.5741 H         1 <0>         0.1346
     26 H6          3.2545   -0.9602   -1.2198 H         1 <0>         0.0835
     27 H7          3.8887   -0.2436    0.2810 H         1 <0>         0.1250
     28 H8          2.7015   -1.5674    0.3593 H         1 <0>         0.0781
     29 H9          3.9320    3.5764   -6.6270 H         1 <0>         0.0869
     30 H10         2.8702    2.2022   -7.0176 H         1 <0>         0.0848
     31 H11         2.2232    3.6024   -6.1293 H         1 <0>         0.0801
     32 H12         5.5079    0.3665   -6.2530 H         1 <0>         0.0697
     33 H13         4.4315   -0.8935   -5.6035 H         1 <0>         0.0675
     34 H14         3.8142    0.2776   -6.7933 H         1 <0>         0.0706
     35 H15         4.0977   -1.0910   -2.5950 H         1 <0>         0.0901
     36 H16         5.5387   -0.8647   -3.6151 H         1 <0>         0.0955
     37 H17         5.4554   -0.0996   -2.0101 H         1 <0>         0.1121
     38 H18         1.6494    4.5654   -0.2788 H         1 <0>         0.0956
     39 H19         2.1320    3.9379   -1.8730 H         1 <0>         0.0916
     40 H20         0.4295    4.3500   -1.5569 H         1 <0>         0.0781
@<TRIPOS>BOND
     1    1    2 1
     2    1   21 1
     3    1   22 1
     4    1   23 1
     5    2    7 ar
     6    2    3 ar
     7    3    4 ar
     8    3   24 1
     9    4    5 ar
    10    4   20 1
    11    5    6 ar
    12    5    9 1
    13    6    7 ar
    14    6    8 1
    15    7   25 1
    16    8   26 1
    17    8   27 1
    18    8   28 1
    19    9   10 2
    20    9   11 2
    21    9   12 1
    22   12   16 1
    23   12   13 1
    24   13   14 2
    25   13   19 1
    26   14   15 1
    27   14   18 1
    28   15   16 2
    29   15   17 1
    30   17   29 1
    31   17   30 1
    32   17   31 1
    33   18   32 1
    34   18   33 1
    35   18   34 1
    36   19   35 1
    37   19   36 1
    38   19   37 1
    39   20   38 1
    40   20   39 1
    41   20   40 1
@<TRIPOS>MOLECULE
ZINC36884862
   34    36     0     0     0
SMALL
USER_CHARGES

@<TRIPOS>ATOM
      1 C1         -0.0156    1.5028    0.0158 C.3       1 <0>        -0.1208
      2 C2          0.0039   -0.0041    0.0054 C.ar      1 <0>        -0.0804
      3 C3         -0.0040   -0.7026    1.1987 C.ar      1 <0>        -0.0900
      4 C4          0.0137   -2.0836    1.1925 C.ar      1 <0>        -0.1248
      5 C5          0.0396   -2.7713   -0.0134 C.ar      1 <0>         0.1374
      6 C6          0.0475   -2.0686   -1.2102 C.ar      1 <0>        -0.1273
      7 C7          0.0239   -0.6862   -1.1984 C.ar      1 <0>        -0.0209
      8 Cl1         0.0267    0.1943   -2.6945 Cl        1 <0>        -0.0554
      9 N1          0.0581   -4.1732   -0.0221 N.am      1 <0>        -0.5198
     10 C8         -0.0287   -4.9246   -1.1375 C.2       1 <0>         0.5195
     11 O1         -0.1337   -4.5309   -2.2793 O.2       1 <0>        -0.4499
     12 C9          0.0330   -6.3644   -0.6675 C.3       1 <0>         0.0654
     13 N2          0.1594   -6.2460    0.7954 N.am      1 <0>        -0.6168
     14 C10         0.1700   -4.9302    1.0754 C.2       1 <0>         0.7015
     15 O2          0.2671   -4.4795    2.1999 O.2       1 <0>        -0.5238
     16 C11         0.2586   -7.3464    1.7573 C.3       1 <0>         0.1818
     17 C12         1.7300   -7.7099    1.9665 C.3       1 <0>        -0.1817
     18 C13         2.1790   -9.1098    1.5430 C.3       1 <0>        -0.1777
     19 C14         2.0535   -8.7632    3.0280 C.3       1 <0>        -0.1678
     20 H1         -1.0478    1.8529    0.0086 H         1 <0>         0.0781
     21 H2          0.4853    1.8664    0.9130 H         1 <0>         0.0736
     22 H3          0.5018    1.8789   -0.8668 H         1 <0>         0.0749
     23 H4         -0.0238   -0.1677    2.1367 H         1 <0>         0.1416
     24 H5          0.0079   -2.6282    2.1251 H         1 <0>         0.1678
     25 H6          0.0680   -2.6010   -2.1496 H         1 <0>         0.1620
     26 H7         -0.8825   -6.8937   -0.9318 H         1 <0>         0.1308
     27 H8          0.9034   -6.8681   -1.0881 H         1 <0>         0.1304
     28 H9         -0.1784   -7.0390    2.7074 H         1 <0>         0.0986
     29 H10        -0.2789   -8.2137    1.3739 H         1 <0>         0.0943
     30 H11         2.4392   -6.8925    1.8360 H         1 <0>         0.1080
     31 H12         1.4261   -9.7720    1.1154 H         1 <0>         0.0979
     32 H13         3.1838   -9.2138    1.1336 H         1 <0>         0.0958
     33 H14         2.9758   -8.6391    3.5955 H         1 <0>         0.0984
     34 H15         1.2180   -9.1973    3.5772 H         1 <0>         0.0992
@<TRIPOS>BOND
     1    1    2 1
     2    1   20 1
     3    1   21 1
     4    1   22 1
     5    2    7 ar
     6    2    3 ar
     7    3    4 ar
     8    3   23 1
     9    4    5 ar
    10    4   24 1
    11    5    6 ar
    12    5    9 1
    13    6    7 ar
    14    6   25 1
    15    7    8 1
    16    9   14 am
    17    9   10 am
    18   10   11 2
    19   10   12 1
    20   12   13 1
    21   12   26 1
    22   12   27 1
    23   13   14 am
    24   13   16 1
    25   14   15 2
    26   16   17 1
    27   16   28 1
    28   16   29 1
    29   17   19 1
    30   17   18 1
    31   17   30 1
    32   18   19 1
    33   18   31 1
    34   18   32 1
    35   19   33 1
    36   19   34 1
@<TRIPOS>MOLECULE
ZINC43538468
   23    25     0     0     0
SMALL
USER_CHARGES

@<TRIPOS>ATOM
      1 C1         -0.0166    1.3734    0.0096 C.ar      1 <0>        -0.1181
      2 C2          1.1696    2.0911    0.0021 C.ar      1 <0>        -0.0883
      3 C3          2.3842    1.4354   -0.0135 C.ar      1 <0>        -0.0924
      4 C4          2.4213    0.0506   -0.0213 C.ar      1 <0>         0.0128
      5 C5          1.2233   -0.6797   -0.0133 C.ar      1 <0>         0.0242
      6 C6          0.0021   -0.0041    0.0020 C.ar      1 <0>        -0.0573
      7 N1          1.5689   -1.9959   -0.0238 N.2       1 <0>        -0.4460
      8 C7          2.8746   -2.0870   -0.0373 C.2       1 <0>         0.1884
      9 O1          3.4229   -0.8587   -0.0361 O.3       1 <0>        -0.1721
     10 S1          3.7814   -3.5976   -0.0539 S.3       1 <0>         0.2816
     11 C8          5.4665   -3.0832   -0.0681 C.ar      1 <0>         0.0307
     12 C9          6.4877   -4.0329   -0.0889 C.ar      1 <0>         0.1505
     13 N2          7.7485   -3.6423   -0.0999 N.ar      1 <0>        -0.4102
     14 C10         8.0430   -2.3522   -0.0913 C.ar      1 <0>         0.0765
     15 C11         7.0339   -1.4092   -0.0703 C.ar      1 <0>         0.0739
     16 N3          5.7677   -1.7915   -0.0646 N.ar      1 <0>        -0.4044
     17 Cl1         6.1014   -5.7254   -0.0996 Cl        1 <0>         0.0132
     18 H1         -0.9609    1.8973    0.0260 H         1 <0>         0.1407
     19 H2          1.1431    3.1708    0.0082 H         1 <0>         0.1431
     20 H3          3.3041    2.0011   -0.0199 H         1 <0>         0.1367
     21 H4         -0.9245   -0.5589    0.0075 H         1 <0>         0.1391
     22 H5          9.0755   -2.0357   -0.1004 H         1 <0>         0.1895
     23 H6          7.2793   -0.3574   -0.0630 H         1 <0>         0.1881
@<TRIPOS>BOND
     1    1    6 ar
     2    1    2 ar
     3    1   18 1
     4    2    3 ar
     5    2   19 1
     6    3    4 ar
     7    3   20 1
     8    4    9 1
     9    4    5 ar
    10    5    6 ar
    11    5    7 1
    12    6   21 1
    13    7    8 2
    14    8    9 1
    15    8   10 1
    16   10   11 1
    17   11   16 ar
    18   11   12 ar
    19   12   13 ar
    20   12   17 1
    21   13   14 ar
    22   14   15 ar
    23   14   22 1
    24   15   16 ar
    25   15   23 1
@<TRIPOS>MOLECULE
ZINC54159182
   26    28     0     0     0
SMALL
USER_CHARGES

@<TRIPOS>ATOM
      1 C1         -0.0184    1.5028    0.0103 C.3       1 <0>        -0.1995
      2 C2          0.0021   -0.0041    0.0020 C.2       1 <0>         0.4377
      3 O1          0.0204   -0.6170    1.0505 O.2       1 <0>        -0.4473
      4 C3         -0.0000   -0.7031   -1.2241 C.2       1 <0>        -0.3203
      5 C4          0.0106   -2.0767   -1.4668 C.2       1 <0>         0.1445
      6 N1          0.0049   -2.4421   -2.7193 N.2       1 <0>        -0.5194
      7 C5         -0.0102   -1.5528   -3.7006 C.2       1 <0>         0.0988
      8 S1         -0.0250   -0.0749   -2.8956 S.3       1 <0>         0.2215
      9 C6         -0.0180   -1.7995   -5.1560 C.ar      1 <0>        -0.0063
     10 C7         -0.0155   -3.1085   -5.6444 C.ar      1 <0>        -0.0440
     11 C8         -0.0227   -3.3358   -7.0073 C.ar      1 <0>         0.0485
     12 C9         -0.0326   -2.2588   -7.8938 C.ar      1 <0>         0.0679
     13 C10        -0.0349   -0.9580   -7.4080 C.ar      1 <0>        -0.0204
     14 C11        -0.0336   -0.7251   -6.0481 C.ar      1 <0>        -0.0727
     15 Cl1        -0.0466    0.3792   -8.5150 Cl        1 <0>        -0.0331
     16 O2         -0.0383   -2.7451   -9.1689 O.3       1 <0>        -0.2909
     17 C12         0.3812   -4.1179   -9.0594 C.3       1 <0>         0.2107
     18 O3         -0.0222   -4.4945   -7.7296 O.3       1 <0>        -0.2967
     19 H1          1.0042    1.8801    0.0026 H         1 <0>         0.1024
     20 H2         -0.5455    1.8639   -0.8728 H         1 <0>         0.0823
     21 H3         -0.5286    1.8543    0.9071 H         1 <0>         0.0961
     22 H4          0.0233   -2.7976   -0.6627 H         1 <0>         0.1911
     23 H5         -0.0075   -3.9418   -4.9575 H         1 <0>         0.1583
     24 H6         -0.0405    0.2879   -5.6736 H         1 <0>         0.1548
     25 H7         -0.1259   -4.7337   -9.8022 H         1 <0>         0.1418
     26 H8          1.4628   -4.1976   -9.1684 H         1 <0>         0.0942
@<TRIPOS>BOND
     1    1    2 1
     2    1   19 1
     3    1   20 1
     4    1   21 1
     5    2    3 2
     6    2    4 1
     7    4    8 1
     8    4    5 2
     9    5    6 1
    10    5   22 1
    11    6    7 2
    12    7    8 1
    13    7    9 1
    14    9   14 ar
    15    9   10 ar
    16   10   11 ar
    17   10   23 1
    18   11   18 1
    19   11   12 ar
    20   12   13 ar
    21   12   16 1
    22   13   14 ar
    23   13   15 1
    24   14   24 1
    25   16   17 1
    26   17   18 1
    27   17   25 1
    28   17   26 1
@<TRIPOS>MOLECULE
ZINC62559468
   42    44     0     0     0
SMALL
USER_CHARGES

@<TRIPOS>ATOM
      1 C1          0.0101    1.4612    0.4421 C.3       1 <0>        -0.1281
      2 C2          0.0021   -0.0041    0.0020 C.3       1 <0>        -0.1212
      3 C3          0.5611   -0.1104   -1.4151 C.3       1 <0>         0.0793
      4 O1          0.9069   -1.4597   -1.7152 O.3       1 <0>        -0.3226
      5 C4          0.0259   -2.4240   -1.3463 C.ar      1 <0>         0.1182
      6 C5         -0.7732   -3.0441   -2.2976 C.ar      1 <0>        -0.1277
      7 C6         -1.6693   -4.0188   -1.9195 C.ar      1 <0>        -0.0627
      8 C7         -1.7779   -4.3884   -0.5733 C.ar      1 <0>        -0.1550
      9 C8         -0.9710   -3.7651    0.3869 C.ar      1 <0>        -0.0666
     10 C9         -0.0741   -2.7907   -0.0014 C.ar      1 <0>         0.1115
     11 N1          0.7503   -2.1645    0.9441 N.am      1 <0>        -0.5637
     12 C10         0.8438   -0.8160    0.9523 C.2       1 <0>         0.5324
     13 O2          1.6017   -0.2623    1.7205 O.2       1 <0>        -0.5097
     14 C11         1.5027   -2.9639    1.9141 C.3       1 <0>         0.0852
     15 C12        -2.7355   -5.4261   -0.1693 C.2       1 <0>         0.4083
     16 O3         -2.8281   -5.7448    0.9973 O.2       1 <0>        -0.4450
     17 C13        -3.6031   -6.0949   -1.2043 C.3       1 <0>        -0.1651
     18 C14        -5.0782   -5.6649   -1.1426 C.3       1 <0>        -0.1191
     19 C15        -5.4366   -7.1352   -1.4156 C.3       1 <0>        -0.1408
     20 C16        -4.0771   -7.4997   -0.7961 C.3       1 <0>        -0.1258
     21 C17        -1.4342   -0.5311    0.0191 C.3       1 <0>        -0.1673
     22 H1          1.0332    1.8372    0.4348 H         1 <0>         0.0716
     23 H2         -0.5983    2.0501   -0.2442 H         1 <0>         0.0706
     24 H3         -0.3987    1.5403    1.4494 H         1 <0>         0.0681
     25 H4         -0.1904    0.2349   -2.1251 H         1 <0>         0.0788
     26 H5          1.4493    0.5158   -1.4993 H         1 <0>         0.1129
     27 H6         -0.6919   -2.7610   -3.3367 H         1 <0>         0.1465
     28 H7         -2.2894   -4.4987   -2.6622 H         1 <0>         0.1447
     29 H8         -1.0507   -4.0454    1.4268 H         1 <0>         0.1441
     30 H9          1.2980   -4.0218    1.7498 H         1 <0>         0.0816
     31 H10         2.5693   -2.7767    1.7899 H         1 <0>         0.0725
     32 H11         1.2007   -2.6881    2.9245 H         1 <0>         0.0700
     33 H12        -3.1759   -6.0522   -2.2062 H         1 <0>         0.1157
     34 H13        -5.3902   -5.3149   -0.1586 H         1 <0>         0.0863
     35 H14        -5.3697   -4.9881   -1.9457 H         1 <0>         0.0777
     36 H15        -6.2894   -7.4914   -0.8376 H         1 <0>         0.0737
     37 H16        -5.5121   -7.3766   -2.4758 H         1 <0>         0.0853
     38 H17        -3.5603   -8.3041   -1.3195 H         1 <0>         0.0741
     39 H18        -4.1154   -7.6513    0.2826 H         1 <0>         0.0938
     40 H19        -2.1020    0.2204   -0.4020 H         1 <0>         0.0753
     41 H20        -1.4935   -1.4434   -0.5744 H         1 <0>         0.0762
     42 H21        -1.7302   -0.7458    1.0459 H         1 <0>         0.0662
@<TRIPOS>BOND
     1    1    2 1
     2    1   22 1
     3    1   23 1
     4    1   24 1
     5    2   12 1
     6    2    3 1
     7    2   21 1
     8    3    4 1
     9    3   25 1
    10    3   26 1
    11    4    5 1
    12    5   10 ar
    13    5    6 ar
    14    6    7 ar
    15    6   27 1
    16    7    8 ar
    17    7   28 1
    18    8    9 ar
    19    8   15 1
    20    9   10 ar
    21    9   29 1
    22   10   11 1
    23   11   12 am
    24   11   14 1
    25   12   13 2
    26   14   30 1
    27   14   31 1
    28   14   32 1
    29   15   16 2
    30   15   17 1
    31   17   20 1
    32   17   18 1
    33   17   33 1
    34   18   19 1
    35   18   34 1
    36   18   35 1
    37   19   20 1
    38   19   36 1
    39   19   37 1
    40   20   38 1
    41   20   39 1
    42   21   40 1
    43   21   41 1
    44   21   42 1
@<TRIPOS>MOLECULE
ZINC07062415
   34    37     0     0     0
SMALL
USER_CHARGES
2-(quinazolin-4-ylsulfanylmethyl)isoindoline-1,3-dione
@<TRIPOS>ATOM
      1 C1         -4.1799    2.2439    5.8516 C.ar      1 <0>        -0.1141
      2 C2         -4.4964    3.5473    6.2237 C.ar      1 <0>        -0.0765
      3 C3         -4.4579    4.5656    5.3180 C.ar      1 <0>        -0.1011
      4 C4         -4.0940    4.2981    3.9914 C.ar      1 <0>         0.1689
      5 C5         -3.7720    2.9714    3.6151 C.ar      1 <0>        -0.1403
      6 C6         -3.8213    1.9492    4.5688 C.ar      1 <0>        -0.0772
      7 C7         -3.4078    2.7277    2.2678 C.ar      1 <0>         0.1822
      8 N1         -3.3821    3.7569    1.4297 N.ar      1 <0>        -0.5126
      9 C8         -3.6965    4.9791    1.8268 C.ar      1 <0>         0.3237
     10 N2         -4.0407    5.2629    3.0608 N.ar      1 <0>        -0.5099
     11 S1         -2.9934    1.1047    1.7213 S.3       1 <0>        -0.0065
     12 C9         -2.4695    1.4676    0.0272 C.3       1 <0>         0.1188
     13 N3         -1.1154    2.0263    0.0439 N.am      1 <0>        -0.5722
     14 C10        -0.8270    3.3286   -0.1311 C.2       1 <0>         0.5669
     15 O1         -1.6356    4.2138   -0.3246 O.2       1 <0>        -0.4245
     16 C11         0.6381    3.5026   -0.0422 C.ar      1 <0>        -0.1385
     17 C12         1.4909    4.5908   -0.1361 C.ar      1 <0>        -0.0458
     18 C13         2.8581    4.4060   -0.0019 C.ar      1 <0>        -0.0936
     19 C14         3.3758    3.1445    0.2248 C.ar      1 <0>        -0.0956
     20 C15         2.5349    2.0468    0.3214 C.ar      1 <0>        -0.0431
     21 C16         1.1660    2.2163    0.1889 C.ar      1 <0>        -0.1413
     22 C17         0.0038    1.3041    0.2325 C.2       1 <0>         0.5746
     23 O2          0.0509    0.1041    0.4139 O.2       1 <0>        -0.4543
     24 H1         -4.2185    1.4553    6.5884 H         1 <0>         0.1362
     25 H2         -4.7771    3.7551    7.2456 H         1 <0>         0.1381
     26 H3         -4.7067    5.5719    5.6209 H         1 <0>         0.1433
     27 H4         -3.5778    0.9342    4.2915 H         1 <0>         0.1364
     28 H5         -3.6641    5.7804    1.1034 H         1 <0>         0.1995
     29 H6         -3.1547    2.1888   -0.4183 H         1 <0>         0.1455
     30 H7         -2.4765    0.5492   -0.5598 H         1 <0>         0.1392
     31 H8          1.0920    5.5786   -0.3134 H         1 <0>         0.1424
     32 H9          3.5234    5.2536   -0.0745 H         1 <0>         0.1437
     33 H10         4.4428    3.0133    0.3276 H         1 <0>         0.1440
     34 H11         2.9449    1.0636    0.4989 H         1 <0>         0.1435
@<TRIPOS>BOND
     1    1    6 ar
     2    1    2 ar
     3    1   24 1
     4    2    3 ar
     5    2   25 1
     6    3    4 ar
     7    3   26 1
     8    4   10 ar
     9    4    5 ar
    10    5    6 ar
    11    5    7 ar
    12    6   27 1
    13    7    8 ar
    14    7   11 1
    15    8    9 ar
    16    9   10 ar
    17    9   28 1
    18   11   12 1
    19   12   13 1
    20   12   29 1
    21   12   30 1
    22   13   22 am
    23   13   14 am
    24   14   15 2
    25   14   16 1
    26   16   21 ar
    27   16   17 ar
    28   17   18 ar
    29   17   31 1
    30   18   19 ar
    31   18   32 1
    32   19   20 ar
    33   19   33 1
    34   20   21 ar
    35   20   34 1
    36   21   22 1
    37   22   23 2
@<TRIPOS>MOLECULE
ZINC27935327
   38    39     0     0     0
SMALL
USER_CHARGES
(2-isopropyl-5-methyl-phenyl) 5-chloro-1-methyl-imidazole-4-sulfonate
@<TRIPOS>ATOM
      1 C1          1.4393   -2.2506    2.8024 C.3       1 <0>        -0.1172
      2 C2          1.1129   -1.6819    1.4455 C.ar      1 <0>        -0.0720
      3 C3          0.9636   -2.5260    0.3604 C.ar      1 <0>        -0.0962
      4 C4          0.6646   -2.0074   -0.8858 C.ar      1 <0>        -0.0951
      5 C5          0.5077   -0.6444   -1.0485 C.ar      1 <0>        -0.0462
      6 C6          0.6622    0.2049    0.0373 C.ar      1 <0>         0.0708
      7 C7          0.9627   -0.3181    1.2869 C.ar      1 <0>        -0.1207
      8 O1          0.5140    1.5464   -0.1214 O.3       1 <0>        -0.6510
      9 S1         -0.8902    2.0535    0.1749 S.o2      1 <0>         2.7004
     10 O2         -0.9343    3.4052   -0.2610 O.2       1 <0>        -0.9126
     11 O3         -1.7894    1.0665   -0.3113 O.2       1 <0>        -0.9319
     12 C8         -1.0744    2.0832    1.9270 C.2       1 <0>        -0.5573
     13 C9         -1.6412    1.1198    2.6804 C.2       1 <0>         0.1282
     14 N1         -1.5747    1.5436    3.9803 N.pl3     1 <0>        -0.4457
     15 C10        -0.9765    2.7556    3.9754 C.2       1 <0>         0.2072
     16 N2         -0.6804    3.0713    2.7446 N.2       1 <0>        -0.4013
     17 C11        -2.0660    0.8212    5.1564 C.3       1 <0>         0.0537
     18 Cl1        -2.3215   -0.3727    2.1118 Cl        1 <0>         0.0443
     19 C12         0.1752   -0.0803   -2.4058 C.3       1 <0>        -0.0614
     20 C13         1.3289   -0.3602   -3.3710 C.3       1 <0>        -0.1462
     21 C14        -1.1016   -0.7382   -2.9328 C.3       1 <0>        -0.1517
     22 H1          1.5194   -3.3454    2.7315 H         1 <0>         0.0737
     23 H2          0.6415   -1.9865    3.5122 H         1 <0>         0.0688
     24 H3          2.3952   -1.8350    3.1538 H         1 <0>         0.0743
     25 H4          1.0810   -3.5922    0.4865 H         1 <0>         0.1347
     26 H5          0.5488   -2.6687   -1.7318 H         1 <0>         0.1396
     27 H6          1.0787    0.3407    2.1348 H         1 <0>         0.1308
     28 H7         -0.7769    3.3624    4.8463 H         1 <0>         0.2296
     29 H8         -1.8700    1.4163    6.0605 H         1 <0>         0.1091
     30 H9         -1.5486   -0.1464    5.2349 H         1 <0>         0.0932
     31 H10        -3.1482    0.6513    5.0567 H         1 <0>         0.0937
     32 H11         0.0239    1.0049   -2.3083 H         1 <0>         0.0696
     33 H12         1.0862    0.0516   -4.3617 H         1 <0>         0.0658
     34 H13         1.4830   -1.4463   -3.4530 H         1 <0>         0.0615
     35 H14         2.2469    0.1129   -2.9921 H         1 <0>         0.0591
     36 H15        -1.3442   -0.3264   -3.9235 H         1 <0>         0.0621
     37 H16        -1.9311   -0.5369   -2.2389 H         1 <0>         0.0781
     38 H17        -0.9475   -1.8243   -3.0149 H         1 <0>         0.0583
@<TRIPOS>BOND
     1    1    2 1
     2    1   22 1
     3    1   23 1
     4    1   24 1
     5    2    7 ar
     6    2    3 ar
     7    3    4 ar
     8    3   25 1
     9    4    5 ar
    10    4   26 1
    11    5    6 ar
    12    5   19 1
    13    6    7 ar
    14    6    8 1
    15    7   27 1
    16    8    9 1
    17    9   10 2
    18    9   11 2
    19    9   12 1
    20   12   16 1
    21   12   13 2
    22   13   14 1
    23   13   18 1
    24   14   15 1
    25   14   17 1
    26   15   16 2
    27   15   28 1
    28   17   29 1
    29   17   30 1
    30   17   31 1
    31   19   20 1
    32   19   21 1
    33   19   32 1
    34   20   33 1
    35   20   34 1
    36   20   35 1
    37   21   36 1
    38   21   37 1
    39   21   38 1
@<TRIPOS>MOLECULE
ZINC42376837
   34    35     0     0     0
SMALL
USER_CHARGES

@<TRIPOS>ATOM
      1 C1          0.8627   -0.3987    1.1941 C.3       1 <0>        -0.1476
      2 C2          0.0250   -0.0088   -0.0254 C.3       1 <0>        -0.1345
      3 C3          0.7778   -0.3858   -1.3029 C.3       1 <0>         0.1801
      4 H1          1.7723    0.0601   -1.2860 H         1 <0>         0.0809
      5 C4          0.8999   -1.9100   -1.3962 C.3       1 <0>        -0.1310
      6 C5          1.5286   -2.2861   -2.7398 C.3       1 <0>        -0.1166
      7 C6          0.6284   -1.8030   -3.8793 C.3       1 <0>        -0.1346
      8 C7          0.5033   -0.2776   -3.8141 C.3       1 <0>         0.1481
      9 N1          0.0379    0.1047   -2.4736 N.pl3     1 <0>        -0.6577
     10 C8         -1.0832    0.9120   -2.3159 C.ar      1 <0>         0.4787
     11 C9         -0.9480    2.2959   -2.3619 C.ar      1 <0>        -0.1099
     12 C10        -2.0712    3.0872   -2.2040 C.ar      1 <0>         0.0223
     13 C11        -3.2976    2.4653   -2.0045 C.ar      1 <0>        -0.1652
     14 C12        -3.3585    1.0861   -1.9700 C.ar      1 <0>         0.1937
     15 N2         -2.2702    0.3565   -2.1288 N.ar      1 <0>        -0.4724
     16 Br1        -4.8668    3.4968   -1.7819 Br        1 <0>         0.0046
     17 N3          0.3801    2.9130   -2.5764 N.pl3     1 <0>         0.0411
     18 O1          0.4748    4.1100   -2.7173 O.2       1 <0>        -0.1699
     19 O2          1.3702    2.2201   -2.6107 O.3       1 <0>        -0.1133
     20 H2          0.9653   -1.4831    1.2328 H         1 <0>         0.0624
     21 H3          1.8499    0.0572    1.1176 H         1 <0>         0.0599
     22 H4          0.3698   -0.0477    2.1007 H         1 <0>         0.0573
     23 H5         -0.9278   -0.5374    0.0043 H         1 <0>         0.0710
     24 H6         -0.1553    1.0661   -0.0137 H         1 <0>         0.0491
     25 H7          1.5298   -2.2749   -0.5849 H         1 <0>         0.0738
     26 H8         -0.0900   -2.3597   -1.3192 H         1 <0>         0.0672
     27 H9          2.5082   -1.8160   -2.8266 H         1 <0>         0.0663
     28 H10         1.6393   -3.3689   -2.7986 H         1 <0>         0.0639
     29 H11         1.0651   -2.0917   -4.8353 H         1 <0>         0.0730
     30 H12        -0.3590   -2.2537   -3.7789 H         1 <0>         0.0661
     31 H13         1.4754    0.1772   -4.0046 H         1 <0>         0.0735
     32 H14        -0.2142    0.0624   -4.5609 H         1 <0>         0.0609
     33 H15        -1.9967    4.1642   -2.2347 H         1 <0>         0.1735
     34 H16        -4.3095    0.5982   -1.8148 H         1 <0>         0.1855
@<TRIPOS>BOND
     1    1    2 1
     2    1   20 1
     3    1   21 1
     4    1   22 1
     5    2    3 1
     6    2   23 1
     7    2   24 1
     8    3    4 1
     9    3    9 1
    10    3    5 1
    11    5    6 1
    12    5   25 1
    13    5   26 1
    14    6    7 1
    15    6   27 1
    16    6   28 1
    17    7    8 1
    18    7   29 1
    19    7   30 1
    20    8    9 1
    21    8   31 1
    22    8   32 1
    23    9   10 1
    24   10   15 ar
    25   10   11 ar
    26   11   12 ar
    27   11   17 1
    28   12   13 ar
    29   12   33 1
    30   13   14 ar
    31   13   16 1
    32   14   15 ar
    33   14   34 1
    34   17   18 2
    35   17   19 1
@<TRIPOS>MOLECULE
ZINC04347766
   39    41     0     0     0
SMALL
USER_CHARGES

@<TRIPOS>ATOM
      1 C1         -1.8837    0.5339   -0.2263 C.3       1 <0>        -0.1176
      2 C2         -1.5262   -0.9295   -0.1838 C.ar      1 <0>        -0.0848
      3 C3         -1.3967   -1.6414   -1.3628 C.ar      1 <0>        -0.1082
      4 C4         -1.0695   -2.9815   -1.3305 C.ar      1 <0>        -0.0902
      5 C5         -0.8687   -3.6181   -0.1057 C.ar      1 <0>         0.0608
      6 C6         -1.0002   -2.8946    1.0797 C.ar      1 <0>        -0.1408
      7 C7         -1.3231   -1.5539    1.0339 C.ar      1 <0>        -0.1077
      8 N1         -0.5433   -4.9516   -0.0670 N.2       1 <0>        -0.4453
      9 C8          0.4002   -5.3634    0.7120 C.2       1 <0>         0.1509
     10 C9          0.7573   -6.8269    0.7545 C.3       1 <0>        -0.0139
     11 C10         2.2055   -7.0018    0.3764 C.2       1 <0>         0.2551
     12 N2          2.6882   -7.0597   -0.8372 N.2       1 <0>        -0.3143
     13 N3          3.9630   -7.2133   -0.8107 N.2       1 <0>        -0.0319
     14 N4          4.3802   -7.2637    0.4084 N.2       1 <0>        -0.0714
     15 N5          3.2467   -7.1218    1.2283 N.pl3     1 <0>        -0.3261
     16 C11         3.2058   -7.1103    2.6304 C.ar      1 <0>         0.1115
     17 C12         2.3983   -6.1975    3.2950 C.ar      1 <0>        -0.1105
     18 C13         2.3600   -6.1885    4.6757 C.ar      1 <0>        -0.1010
     19 C14         3.1254   -7.0872    5.3958 C.ar      1 <0>        -0.0644
     20 C15         3.9307   -7.9976    4.7365 C.ar      1 <0>        -0.1019
     21 C16         3.9684   -8.0154    3.3558 C.ar      1 <0>        -0.0855
     22 C17         3.0822   -7.0742    6.9021 C.3       1 <0>        -0.1220
     23 H1         -0.9722    1.1293   -0.2785 H         1 <0>         0.0730
     24 H2         -2.4982    0.7324   -1.1044 H         1 <0>         0.0693
     25 H3         -2.4394    0.7984    0.6734 H         1 <0>         0.0682
     26 H4         -1.5524   -1.1474   -2.3105 H         1 <0>         0.1307
     27 H5         -0.9694   -3.5364   -2.2517 H         1 <0>         0.1325
     28 H6         -0.8464   -3.3820    2.0311 H         1 <0>         0.1232
     29 H7         -1.4216   -0.9917    1.9508 H         1 <0>         0.1269
     30 H8          0.5957   -7.2112    1.7617 H         1 <0>         0.1214
     31 H9          0.9336   -4.6592    1.3332 H         1 <0>         0.1034
     32 H10         0.1295   -7.3746    0.0516 H         1 <0>         0.1354
     33 H11         1.8008   -5.4949    2.7331 H         1 <0>         0.1327
     34 H12         1.7319   -5.4786    5.1934 H         1 <0>         0.1398
     35 H13         4.5277   -8.6981    5.3015 H         1 <0>         0.1395
     36 H14         4.5938   -8.7299    2.8413 H         1 <0>         0.1383
     37 H15         2.2960   -7.7449    7.2489 H         1 <0>         0.0790
     38 H16         4.0428   -7.4060    7.2961 H         1 <0>         0.0731
     39 H17         2.8765   -6.0622    7.2509 H         1 <0>         0.0727
@<TRIPOS>BOND
     1    1    2 1
     2    1   23 1
     3    1   24 1
     4    1   25 1
     5    2    7 ar
     6    2    3 ar
     7    3    4 ar
     8    3   26 1
     9    4    5 ar
    10    4   27 1
    11    5    6 ar
    12    5    8 1
    13    6    7 ar
    14    6   28 1
    15    7   29 1
    16    8    9 2
    17    9   31 1
    18    9   10 1
    19   10   11 1
    20   10   30 1
    21   10   32 1
    22   11   15 1
    23   11   12 2
    24   12   13 1
    25   13   14 2
    26   14   15 1
    27   15   16 1
    28   16   21 ar
    29   16   17 ar
    30   17   18 ar
    31   17   33 1
    32   18   19 ar
    33   18   34 1
    34   19   20 ar
    35   19   22 1
    36   20   21 ar
    37   20   35 1
    38   21   36 1
    39   22   37 1
    40   22   38 1
    41   22   39 1
@<TRIPOS>MOLECULE
ZINC66342980
   46    48     0     0     0
SMALL
USER_CHARGES

@<TRIPOS>ATOM
      1 C1         -0.0184    1.5028    0.0103 C.3       1 <0>        -0.0803
      2 C2          0.0021   -0.0041    0.0020 C.2       1 <0>         0.0129
      3 C3         -1.0877   -0.8034    0.0027 C.2       1 <0>        -0.2179
      4 C4         -0.6296   -2.1297   -0.0066 C.2       1 <0>        -0.1485
      5 C5          0.7485   -2.0689   -0.0127 C.2       1 <0>        -0.0221
      6 O1          1.1038   -0.7670   -0.0131 O.3       1 <0>        -0.1650
      7 C6          1.6325   -3.1751   -0.0221 C.2       1 <0>         0.0257
      8 C7          2.9734   -2.9715   -0.0273 C.2       1 <0>        -0.2144
      9 C8          3.8571   -4.0773   -0.0367 C.2       1 <0>         0.5816
     10 O2          3.4133   -5.2113   -0.0401 O.2       1 <0>        -0.5307
     11 N1          5.1896   -3.8750   -0.0419 N.am      1 <0>        -0.5948
     12 C9          6.2188   -4.9017   -0.0574 C.3       1 <0>         0.1358
     13 H1          6.5195   -5.0926   -1.0876 H         1 <0>         0.0778
     14 C10         5.9113   -6.2183    0.6245 C.3       1 <0>        -0.1197
     15 C11         7.1341   -7.1308    0.4327 C.3       1 <0>        -0.1165
     16 C12         8.4011   -6.4868    0.9878 C.3       1 <0>        -0.1234
     17 C13         8.6381   -5.0950    0.3801 C.3       1 <0>        -0.1052
     18 C14         7.4068   -4.2586    0.7087 C.3       1 <0>        -0.1084
     19 H2          7.2150   -4.2258    1.7811 H         1 <0>         0.0916
     20 C15         7.4026   -2.8532    0.0874 C.3       1 <0>        -0.1122
     21 C16         5.8810   -2.5641   -0.0393 C.3       1 <0>         0.1414
     22 H3          5.6774   -2.0349   -0.9702 H         1 <0>         0.1180
     23 C17         5.4177   -1.7415    1.1354 C.2       1 <0>         0.4438
     24 O3          4.8728   -2.2777    2.0710 O.2       1 <0>        -0.4828
     25 O4          5.6103   -0.4131    1.1421 O.3       1 <0>        -0.3507
     26 C18         5.1459    0.3039    2.2876 C.3       1 <0>         0.0332
     27 H4          1.0042    1.8801    0.0026 H         1 <0>         0.0778
     28 H5         -0.5455    1.8639   -0.8728 H         1 <0>         0.0910
     29 H6         -0.5286    1.8543    0.9071 H         1 <0>         0.0905
     30 H7         -2.1186   -0.4815    0.0096 H         1 <0>         0.1555
     31 H8         -1.2368   -3.0228   -0.0083 H         1 <0>         0.1588
     32 H9          1.2390   -4.1808   -0.0251 H         1 <0>         0.1631
     33 H10         3.3669   -1.9658   -0.0243 H         1 <0>         0.1179
     34 H11         5.7352   -6.0530    1.6874 H         1 <0>         0.0657
     35 H12         5.0327   -6.6753    0.1690 H         1 <0>         0.0882
     36 H13         6.9588   -8.0751    0.9482 H         1 <0>         0.0677
     37 H14         7.2700   -7.3262   -0.6310 H         1 <0>         0.0629
     38 H15         8.3079   -6.3919    2.0697 H         1 <0>         0.0618
     39 H16         9.2545   -7.1252    0.7596 H         1 <0>         0.0657
     40 H17         9.5238   -4.6419    0.8254 H         1 <0>         0.0714
     41 H18         8.7658   -5.1784   -0.6992 H         1 <0>         0.0720
     42 H19         7.8853   -2.1332    0.7482 H         1 <0>         0.0918
     43 H20         7.8772   -2.8590   -0.8938 H         1 <0>         0.1008
     44 H21         5.3635    1.3649    2.1650 H         1 <0>         0.1052
     45 H22         4.0701    0.1634    2.3927 H         1 <0>         0.0612
     46 H23         5.6498   -0.0696    3.1790 H         1 <0>         0.0618
@<TRIPOS>BOND
     1    1    2 1
     2    1   27 1
     3    1   28 1
     4    1   29 1
     5    2    6 1
     6    2    3 2
     7    3    4 1
     8    3   30 1
     9    4    5 2
    10    4   31 1
    11    5    6 1
    12    5    7 1
    13    7    8 2
    14    7   32 1
    15    8    9 1
    16    8   33 1
    17    9   10 2
    18    9   11 am
    19   11   21 1
    20   11   12 1
    21   12   13 1
    22   12   18 1
    23   12   14 1
    24   14   15 1
    25   14   34 1
    26   14   35 1
    27   15   16 1
    28   15   36 1
    29   15   37 1
    30   16   17 1
    31   16   38 1
    32   16   39 1
    33   17   18 1
    34   17   40 1
    35   17   41 1
    36   18   19 1
    37   18   20 1
    38   20   21 1
    39   20   42 1
    40   20   43 1
    41   21   22 1
    42   21   23 1
    43   23   24 2
    44   23   25 1
    45   25   26 1
    46   26   44 1
    47   26   45 1
    48   26   46 1
@<TRIPOS>MOLECULE
ZINC05234364
   39    42     0     0     0
SMALL
USER_CHARGES
cyclohexoxysulfonylBLAHone
@<TRIPOS>ATOM
      1 C1          1.1749    3.1489   -6.5892 C.ar      1 <0>        -0.1123
      2 C2          0.4533    2.4657   -5.6539 C.ar      1 <0>        -0.0844
      3 C3         -0.7682    2.9944   -5.2021 C.ar      1 <0>         0.0280
      4 C4         -1.5592    2.3368   -4.2452 C.ar      1 <0>        -0.6800
      5 C5         -2.7411    2.8817   -3.8377 C.ar      1 <0>         0.0163
      6 C6         -3.1923    4.0944   -4.3625 C.ar      1 <0>        -0.0700
      7 C7         -2.4420    4.7501   -5.3002 C.ar      1 <0>        -0.0364
      8 C8         -1.2220    4.2202   -5.7429 C.ar      1 <0>        -0.0694
      9 C9         -0.4785    4.9151   -6.7017 C.ar      1 <0>        -0.1887
     10 C10         0.7361    4.3527   -7.1174 C.ar      1 <0>        -0.0028
     11 C11        -1.0971    6.1888   -7.1585 C.2       1 <0>         0.4258
     12 O1         -0.6753    6.9860   -7.9758 O.2       1 <0>        -0.3745
     13 S1         -2.6096    6.2606   -6.2139 S.3       1 <0>        -0.0533
     14 S2         -1.0184    0.8048   -3.5632 S.o2      1 <0>         2.6942
     15 O2         -0.2806    0.1445   -4.5824 O.2       1 <0>        -0.9269
     16 O3         -2.1510    0.2157   -2.9391 O.2       1 <0>        -0.9584
     17 O4         -0.0301    1.1306   -2.4524 O.3       1 <0>        -0.7181
     18 C12        -0.6403    1.6210   -1.2569 C.3       1 <0>         0.0830
     19 C13         0.1418    1.1182   -0.0419 C.3       1 <0>        -0.1154
     20 C14        -0.5115    1.6432    1.2381 C.3       1 <0>        -0.1205
     21 C15        -0.5037    3.1731    1.2241 C.3       1 <0>        -0.1272
     22 C16        -1.2858    3.6760    0.0091 C.3       1 <0>        -0.1170
     23 C17        -0.6325    3.1509   -1.2709 C.3       1 <0>        -0.1558
     24 H1          2.1151    2.7394   -6.9278 H         1 <0>         0.1489
     25 H2          0.8201    1.5292   -5.2605 H         1 <0>         0.1729
     26 H3         -3.3368    2.3677   -3.0978 H         1 <0>         0.1605
     27 H4         -4.1301    4.5136   -4.0291 H         1 <0>         0.1550
     28 H5          1.3362    4.8628   -7.8564 H         1 <0>         0.1471
     29 H6         -1.6684    1.2634   -1.2007 H         1 <0>         0.1162
     30 H7          0.1363    0.0282   -0.0319 H         1 <0>         0.0806
     31 H8          1.1699    1.4758   -0.0981 H         1 <0>         0.0838
     32 H9         -1.5396    1.2856    1.2944 H         1 <0>         0.0710
     33 H10         0.0457    1.2850    2.1037 H         1 <0>         0.0785
     34 H11         0.5244    3.5308    1.1679 H         1 <0>         0.0680
     35 H12        -0.9691    3.5472    2.1360 H         1 <0>         0.0718
     36 H13        -1.2803    4.7659   -0.0009 H         1 <0>         0.0768
     37 H14        -2.3140    3.3184    0.0653 H         1 <0>         0.0711
     38 H15         0.3956    3.5086   -1.3272 H         1 <0>         0.0876
     39 H16        -1.1897    3.5092   -2.1366 H         1 <0>         0.0741
@<TRIPOS>BOND
     1    1   10 ar
     2    1    2 ar
     3    1   24 1
     4    2    3 ar
     5    2   25 1
     6    3    8 ar
     7    3    4 ar
     8    4    5 ar
     9    4   14 1
    10    5    6 ar
    11    5   26 1
    12    6    7 ar
    13    6   27 1
    14    7   13 1
    15    7    8 ar
    16    8    9 ar
    17    9   10 ar
    18    9   11 1
    19   10   28 1
    20   11   12 2
    21   11   13 1
    22   14   15 2
    23   14   16 2
    24   14   17 1
    25   17   18 1
    26   18   23 1
    27   18   19 1
    28   18   29 1
    29   19   20 1
    30   19   30 1
    31   19   31 1
    32   20   21 1
    33   20   32 1
    34   20   33 1
    35   21   22 1
    36   21   34 1
    37   21   35 1
    38   22   23 1
    39   22   36 1
    40   22   37 1
    41   23   38 1
    42   23   39 1
@<TRIPOS>MOLECULE
ZINC11317098
   32    35     0     0     0
SMALL
USER_CHARGES
4-fluoro-3-(BLAHylsulfanylmethyl)benzonitrile
@<TRIPOS>ATOM
      1 C1          1.2201   -0.6623   -0.0131 C.ar      1 <0>        -0.0874
      2 C2          0.0021   -0.0041    0.0020 C.ar      1 <0>        -0.0936
      3 C3         -0.0167    1.3796    0.0096 C.ar      1 <0>        -0.0482
      4 C4          1.1713    2.0736    0.0020 C.ar      1 <0>        -0.1273
      5 C5          2.4162    1.4371   -0.0128 C.ar      1 <0>         0.0930
      6 C6          2.4063    0.0330   -0.0207 C.ar      1 <0>        -0.0908
      7 N1          3.5502    2.2641   -0.0192 N.pl3     1 <0>        -0.4568
      8 C7          3.3585    3.6202   -0.0101 C.2       1 <0>         0.1976
      9 S1          1.5908    3.7996    0.0083 S.3       1 <0>         0.1817
     10 N2          4.5058    4.2302   -0.0177 N.2       1 <0>        -0.2527
     11 N3          5.5062    3.2483   -0.0326 N.2       1 <0>        -0.2894
     12 C8          4.9238    2.0776   -0.0337 C.2       1 <0>         0.2221
     13 S2          5.7485    0.5206   -0.0503 S.3       1 <0>         0.0214
     14 C9          7.5093    0.9567   -0.0652 C.3       1 <0>        -0.0676
     15 C10         8.3384   -0.3016   -0.0802 C.ar      1 <0>        -0.1207
     16 C11         8.7052   -0.8696   -1.2817 C.ar      1 <0>        -0.0197
     17 C12         9.4740   -2.0356   -1.2940 C.ar      1 <0>        -0.0342
     18 C13         9.8670   -2.6197   -0.0873 C.ar      1 <0>        -0.0276
     19 C14         9.4945   -2.0431    1.1079 C.ar      1 <0>        -0.1512
     20 C15         8.7356   -0.8826    1.1141 C.ar      1 <0>         0.1533
     21 F1          8.3776   -0.3188    2.2885 F         1 <0>        -0.1202
     22 C16         9.8584   -2.6299   -2.5389 C.1       1 <0>         0.2481
     23 N4         10.1633   -3.1013   -3.5264 N.1       1 <0>        -0.3987
     24 H1          1.2388   -1.7422   -0.0195 H         1 <0>         0.1441
     25 H2         -0.9217   -0.5635    0.0075 H         1 <0>         0.1489
     26 H3         -0.9570    1.9109    0.0170 H         1 <0>         0.1494
     27 H4          3.3414   -0.5072   -0.0326 H         1 <0>         0.1353
     28 H5          7.7297    1.5476   -0.9542 H         1 <0>         0.1196
     29 H6          7.7472    1.5380    0.8257 H         1 <0>         0.1172
     30 H7          8.3989   -0.4137   -2.2116 H         1 <0>         0.1498
     31 H8         10.4612   -3.5215   -0.0909 H         1 <0>         0.1498
     32 H9          9.7977   -2.4938    2.0414 H         1 <0>         0.1546
@<TRIPOS>BOND
     1    1    6 ar
     2    1    2 ar
     3    1   24 1
     4    2    3 ar
     5    2   25 1
     6    3    4 ar
     7    3   26 1
     8    4    9 1
     9    4    5 ar
    10    5    6 ar
    11    5    7 1
    12    6   27 1
    13    7   12 1
    14    7    8 1
    15    8    9 1
    16    8   10 2
    17   10   11 1
    18   11   12 2
    19   12   13 1
    20   13   14 1
    21   14   15 1
    22   14   28 1
    23   14   29 1
    24   15   20 ar
    25   15   16 ar
    26   16   17 ar
    27   16   30 1
    28   17   18 ar
    29   17   22 1
    30   18   19 ar
    31   18   31 1
    32   19   20 ar
    33   19   32 1
    34   20   21 1
    35   22   23 3
@<TRIPOS>MOLECULE
ZINC23374669
   30    33     0     0     0
SMALL
USER_CHARGES
1-[(6-chloro-3-pyridyl)methylsulfanyl]-[1,2,4]triazolo[3,4-b][1,3]benzothiazole
@<TRIPOS>ATOM
      1 C1          1.2201   -0.6623   -0.0131 C.ar      1 <0>        -0.0874
      2 C2          0.0021   -0.0041    0.0020 C.ar      1 <0>        -0.0932
      3 C3         -0.0167    1.3796    0.0096 C.ar      1 <0>        -0.0481
      4 C4          1.1713    2.0736    0.0020 C.ar      1 <0>        -0.1273
      5 C5          2.4162    1.4371   -0.0128 C.ar      1 <0>         0.0927
      6 C6          2.4063    0.0330   -0.0207 C.ar      1 <0>        -0.0909
      7 N1          3.5502    2.2641   -0.0192 N.pl3     1 <0>        -0.4567
      8 C7          3.3585    3.6202   -0.0101 C.2       1 <0>         0.1977
      9 S1          1.5908    3.7996    0.0083 S.3       1 <0>         0.1821
     10 N2          4.5058    4.2302   -0.0177 N.2       1 <0>        -0.2529
     11 N3          5.5062    3.2483   -0.0326 N.2       1 <0>        -0.2899
     12 C8          4.9238    2.0776   -0.0337 C.2       1 <0>         0.2213
     13 S2          5.7485    0.5206   -0.0503 S.3       1 <0>         0.0192
     14 C9          7.5093    0.9567   -0.0652 C.3       1 <0>        -0.0638
     15 C10         8.3384   -0.3016   -0.0802 C.ar      1 <0>        -0.1354
     16 C11         8.7128   -0.8813   -1.2834 C.ar      1 <0>        -0.0380
     17 C12         9.4756   -2.0376   -1.2497 C.ar      1 <0>        -0.1528
     18 C13         9.8359   -2.5720   -0.0249 C.ar      1 <0>         0.1845
     19 N4          9.4613   -1.9928    1.0999 N.ar      1 <0>        -0.4743
     20 C14         8.7395   -0.8887    1.1043 C.ar      1 <0>         0.1457
     21 Cl1        10.7919   -4.0199    0.0321 Cl        1 <0>        -0.0203
     22 H1          1.2388   -1.7422   -0.0195 H         1 <0>         0.1441
     23 H2         -0.9217   -0.5635    0.0075 H         1 <0>         0.1491
     24 H3         -0.9570    1.9109    0.0170 H         1 <0>         0.1496
     25 H4          3.3414   -0.5072   -0.0326 H         1 <0>         0.1350
     26 H5          7.7317    1.5531   -0.9623 H         1 <0>         0.1167
     27 H6          7.7494    1.5433    0.8338 H         1 <0>         0.1179
     28 H7          8.4171   -0.4415   -2.2245 H         1 <0>         0.1518
     29 H8          9.7847   -2.5159   -2.1673 H         1 <0>         0.1528
     30 H9          8.4555   -0.4405    2.0449 H         1 <0>         0.1708
@<TRIPOS>BOND
     1    1    6 ar
     2    1    2 ar
     3    1   22 1
     4    2    3 ar
     5    2   23 1
     6    3    4 ar
     7    3   24 1
     8    4    9 1
     9    4    5 ar
    10    5    6 ar
    11    5    7 1
    12    6   25 1
    13    7   12 1
    14    7    8 1
    15    8    9 1
    16    8   10 2
    17   10   11 1
    18   11   12 2
    19   12   13 1
    20   13   14 1
    21   14   15 1
    22   14   26 1
    23   14   27 1
    24   15   20 ar
    25   15   16 ar
    26   16   17 ar
    27   16   28 1
    28   17   18 ar
    29   17   29 1
    30   18   19 ar
    31   18   21 1
    32   19   20 ar
    33   20   30 1
@<TRIPOS>MOLECULE
ZINC39735092
   29    32     0     0     0
SMALL
USER_CHARGES

@<TRIPOS>ATOM
      1 C1         -0.0164    1.3604    0.0095 C.ar      1 <0>        -0.1207
      2 C2          1.1682    2.0853    0.0021 C.ar      1 <0>        -0.0714
      3 C3          2.3842    1.4379   -0.0129 C.ar      1 <0>        -0.1160
      4 C4          2.4271    0.0489   -0.0208 C.ar      1 <0>         0.1213
      5 C5          1.2251   -0.6865   -0.0132 C.ar      1 <0>         0.0585
      6 C6          0.0021   -0.0041    0.0020 C.ar      1 <0>        -0.0453
      7 N1          1.5545   -1.9916   -0.0238 N.2       1 <0>        -0.3817
      8 C7          2.8639   -2.1265   -0.0373 C.2       1 <0>         0.2952
      9 N2          3.4369   -0.8779   -0.0358 N.pl3     1 <0>        -0.5160
     10 C8          4.8840   -1.1240   -0.0516 C.3       1 <0>         0.2000
     11 H1          5.3343   -0.7018   -0.9499 H         1 <0>         0.1763
     12 N3          4.9900   -2.5916   -0.0611 N.2       1 <0>        -0.1162
     13 N4          3.8532   -3.0669   -0.0522 N.2       1 <0>        -0.0511
     14 S1          5.6637   -0.4348    1.4342 S.3       1 <0>        -0.1396
     15 C9          6.7850   -1.7478    1.9906 C.3       1 <0>        -0.0678
     16 C10         7.5170   -1.2917    3.2544 C.3       1 <0>        -0.1096
     17 H2          7.6783   -0.2173    3.3424 H         1 <0>         0.1400
     18 C11         7.2571   -2.0750    4.5428 C.3       1 <0>        -0.1335
     19 C12         8.5977   -2.2169    3.8175 C.3       1 <0>         0.0085
     20 Cl1         8.9111   -3.7610    2.9411 Cl        1 <0>        -0.0794
     21 Cl2        10.0403   -1.4464    4.5765 Cl        1 <0>        -0.0813
     22 H3         -0.9620    1.8819    0.0259 H         1 <0>         0.1419
     23 H4          1.1359    3.1648    0.0078 H         1 <0>         0.1414
     24 H5          3.3013    2.0082   -0.0190 H         1 <0>         0.1311
     25 H6         -0.9255   -0.5572    0.0082 H         1 <0>         0.1433
     26 H7          6.2105   -2.6481    2.2084 H         1 <0>         0.1031
     27 H8          7.5117   -1.9613    1.2068 H         1 <0>         0.1142
     28 H9          7.2479   -1.5159    5.4784 H         1 <0>         0.1287
     29 H10         6.5647   -2.9151    4.4900 H         1 <0>         0.1260
@<TRIPOS>BOND
     1    1    6 ar
     2    1    2 ar
     3    1   22 1
     4    2    3 ar
     5    2   23 1
     6    3    4 ar
     7    3   24 1
     8    4    9 1
     9    4    5 ar
    10    5    6 ar
    11    5    7 1
    12    6   25 1
    13    7    8 2
    14    8   13 1
    15    8    9 1
    16    9   10 1
    17   10   11 1
    18   10   12 1
    19   10   14 1
    20   12   13 2
    21   14   15 1
    22   15   16 1
    23   15   26 1
    24   15   27 1
    25   16   17 1
    26   16   19 1
    27   16   18 1
    28   18   19 1
    29   18   28 1
    30   18   29 1
    31   19   20 1
    32   19   21 1
@<TRIPOS>MOLECULE
ZINC62148595
   33    34     0     0     0
SMALL
USER_CHARGES

@<TRIPOS>ATOM
      1 C1         -0.0184    1.5028    0.0103 C.3       1 <0>        -0.1199
      2 C2          0.0021   -0.0041    0.0020 C.ar      1 <0>        -0.0791
      3 C3          0.0057   -0.6888   -1.1991 C.ar      1 <0>        -0.1176
      4 C4          0.0245   -2.0707   -1.2067 C.ar      1 <0>        -0.1116
      5 C5          0.0400   -2.7685   -0.0132 C.ar      1 <0>        -0.1025
      6 C6          0.0373   -2.0840    1.1875 C.ar      1 <0>        -0.0927
      7 C7          0.0229   -0.7015    1.1951 C.ar      1 <0>        -0.0843
      8 C8          0.0252    0.0449    2.5043 C.3       1 <0>        -0.1188
      9 C9          0.0595   -4.2753   -0.0215 C.3       1 <0>        -0.0759
     10 C10         1.5084   -4.7666   -0.0322 C.3       1 <0>         0.0253
     11 H1          2.0371   -4.3205   -0.8745 H         1 <0>         0.1488
     12 C11         1.5289   -6.2677   -0.1643 C.2       1 <0>         0.0567
     13 C12         2.0276   -6.9591   -1.2048 C.2       1 <0>        -0.1906
     14 C13         1.8404   -8.3298   -0.9132 C.2       1 <0>        -0.0758
     15 C14         1.2385   -8.3940    0.2880 C.2       1 <0>         0.0122
     16 O1          1.0575   -7.1422    0.7395 O.3       1 <0>        -0.1358
     17 N1          0.8477   -9.6344    0.9953 N.pl3     1 <0>         0.0684
     18 O2          1.0664  -10.7117    0.4921 O.2       1 <0>        -0.1206
     19 O3          0.3099   -9.5701    2.0761 O.3       1 <0>        -0.1242
     20 Br1         2.3899   -4.2443    1.6457 Br        1 <0>        -0.1048
     21 H2          1.0042    1.8801    0.0026 H         1 <0>         0.0720
     22 H3         -0.5455    1.8639   -0.8728 H         1 <0>         0.0670
     23 H4         -0.5286    1.8543    0.9071 H         1 <0>         0.0698
     24 H5         -0.0064   -0.1437   -2.1314 H         1 <0>         0.1234
     25 H6          0.0266   -2.6056   -2.1449 H         1 <0>         0.1218
     26 H7          0.0491   -2.6290    2.1199 H         1 <0>         0.1250
     27 H8         -1.0017    0.2110    2.8297 H         1 <0>         0.0716
     28 H9          0.5542   -0.5412    3.2558 H         1 <0>         0.0670
     29 H10         0.5249    1.0049    2.3743 H         1 <0>         0.0696
     30 H11        -0.4447   -4.6501    0.8693 H         1 <0>         0.0929
     31 H12        -0.4546   -4.6404   -0.9106 H         1 <0>         0.0970
     32 H13         2.4835   -6.5463   -2.0926 H         1 <0>         0.1806
     33 H14         2.1256   -9.1650   -1.5357 H         1 <0>         0.1850
@<TRIPOS>BOND
     1    1    2 1
     2    1   21 1
     3    1   22 1
     4    1   23 1
     5    2    7 ar
     6    2    3 ar
     7    3    4 ar
     8    3   24 1
     9    4    5 ar
    10    4   25 1
    11    5    6 ar
    12    5    9 1
    13    6    7 ar
    14    6   26 1
    15    7    8 1
    16    8   27 1
    17    8   28 1
    18    8   29 1
    19    9   10 1
    20    9   30 1
    21    9   31 1
    22   10   11 1
    23   10   12 1
    24   10   20 1
    25   12   16 1
    26   12   13 2
    27   13   14 1
    28   13   32 1
    29   14   15 2
    30   14   33 1
    31   15   16 1
    32   15   17 1
    33   17   18 2
    34   17   19 1
@<TRIPOS>MOLECULE
ZINC04707043
   45    46     0     0     0
SMALL
USER_CHARGES
2-methyl-1-[4-(4-nitrophenyl)piperazin-1-yl]-pentan-1-one
@<TRIPOS>ATOM
      1 C1          1.7064   10.2331   -5.4761 C.3       1 <0>        -0.1542
      2 C2          0.9652    9.1470   -4.6939 C.3       1 <0>        -0.1248
      3 C3          1.8119    8.7141   -3.4953 C.3       1 <0>        -0.1028
      4 C4          1.0708    7.6279   -2.7131 C.3       1 <0>        -0.1108
      5 H1          0.8153    6.8075   -3.3837 H         1 <0>         0.0922
      6 C5         -0.2091    8.2143   -2.1139 C.3       1 <0>        -0.1452
      7 C6          1.9546    7.1148   -1.6056 C.2       1 <0>         0.5219
      8 O1          2.8442    7.8127   -1.1670 O.2       1 <0>        -0.5314
      9 N1          1.7565    5.8802   -1.1025 N.am      1 <0>        -0.6201
     10 C7          2.6712    5.3193   -0.0965 C.3       1 <0>         0.1148
     11 C8          3.1174    3.9302   -0.5651 C.3       1 <0>         0.0308
     12 N2          1.9330    3.1104   -0.8536 N.pl3     1 <0>        -0.4849
     13 C9          1.1466    3.6796   -1.9561 C.3       1 <0>         0.0396
     14 C10         0.6196    5.0584   -1.5445 C.3       1 <0>         0.1074
     15 C11         2.2934    1.7887   -1.1261 C.ar      1 <0>         0.1665
     16 C12         1.3159    0.8481   -1.4247 C.ar      1 <0>        -0.1424
     17 C13         1.6757   -0.4577   -1.6941 C.ar      1 <0>        -0.0255
     18 C14         3.0075   -0.8292   -1.6672 C.ar      1 <0>        -0.0742
     19 C15         3.9831    0.1046   -1.3698 C.ar      1 <0>        -0.0217
     20 C16         3.6302    1.4119   -1.0986 C.ar      1 <0>        -0.1739
     21 N3          3.3894   -2.2295   -1.9569 N.pl3     1 <0>         0.0316
     22 O2          2.5312   -3.0531   -2.2186 O.2       1 <0>        -0.1628
     23 O3          4.5620   -2.5581   -1.9336 O.3       1 <0>        -0.1643
     24 H2          1.8835   11.0911   -4.8276 H         1 <0>         0.0555
     25 H3          2.6604    9.8405   -5.8280 H         1 <0>         0.0540
     26 H4          1.1032   10.5415   -6.3300 H         1 <0>         0.0555
     27 H5          0.7881    8.2890   -5.3424 H         1 <0>         0.0608
     28 H6          0.0112    9.5395   -4.3420 H         1 <0>         0.0658
     29 H7          1.9890    9.5720   -2.8468 H         1 <0>         0.0749
     30 H8          2.7659    8.3215   -3.8472 H         1 <0>         0.0649
     31 H9         -0.6819    7.4726   -1.4701 H         1 <0>         0.0590
     32 H10         0.0366    9.1000   -1.5281 H         1 <0>         0.0654
     33 H11        -0.8938    8.4880   -2.9166 H         1 <0>         0.0733
     34 H12         2.1559    5.2349    0.8603 H         1 <0>         0.0796
     35 H13         3.5417    5.9662    0.0123 H         1 <0>         0.1042
     36 H14         3.7072    3.4542    0.2182 H         1 <0>         0.1021
     37 H15         3.7211    4.0273   -1.4674 H         1 <0>         0.0598
     38 H16         1.7778    3.7802   -2.8390 H         1 <0>         0.0585
     39 H17         0.3072    3.0218   -2.1816 H         1 <0>         0.1020
     40 H18        -0.0928    4.9490   -0.7269 H         1 <0>         0.0846
     41 H19         0.1314    5.5356   -2.3942 H         1 <0>         0.1015
     42 H20         0.2760    1.1386   -1.4506 H         1 <0>         0.1504
     43 H21         0.9162   -1.1896   -1.9264 H         1 <0>         0.1567
     44 H22         5.0223   -0.1889   -1.3493 H         1 <0>         0.1551
     45 H23         4.3926    2.1406   -0.8660 H         1 <0>         0.1509
@<TRIPOS>BOND
     1    1    2 1
     2    1   24 1
     3    1   25 1
     4    1   26 1
     5    2    3 1
     6    2   27 1
     7    2   28 1
     8    3    4 1
     9    3   29 1
    10    3   30 1
    11    4    5 1
    12    4    6 1
    13    4    7 1
    14    6   31 1
    15    6   32 1
    16    6   33 1
    17    7    8 2
    18    7    9 am
    19    9   14 1
    20    9   10 1
    21   10   11 1
    22   10   34 1
    23   10   35 1
    24   11   12 1
    25   11   36 1
    26   11   37 1
    27   12   13 1
    28   12   15 1
    29   13   14 1
    30   13   38 1
    31   13   39 1
    32   14   40 1
    33   14   41 1
    34   15   20 ar
    35   15   16 ar
    36   16   17 ar
    37   16   42 1
    38   17   18 ar
    39   17   43 1
    40   18   19 ar
    41   18   21 1
    42   19   20 ar
    43   19   44 1
    44   20   45 1
    45   21   22 2
    46   21   23 1
@<TRIPOS>MOLECULE
ZINC21730313
   38    40     0     0     0
SMALL
USER_CHARGES
5-nitro-1-[(2-phenoxyphenyl)methyl]pyridin-2-one
@<TRIPOS>ATOM
      1 C1          6.9388    4.1729   -3.7735 C.ar      1 <0>        -0.1101
      2 C2          5.6303    3.8703   -4.1024 C.ar      1 <0>        -0.1031
      3 C3          4.9386    2.9164   -3.3815 C.ar      1 <0>        -0.1185
      4 C4          5.5578    2.2620   -2.3261 C.ar      1 <0>         0.0747
      5 C5          6.8689    2.5720   -1.9942 C.ar      1 <0>        -0.1207
      6 C6          7.5582    3.5223   -2.7223 C.ar      1 <0>        -0.1058
      7 O1          4.8796    1.3232   -1.6154 O.3       1 <0>        -0.2662
      8 C7          4.9438    0.0334   -2.0381 C.ar      1 <0>         0.1392
      9 C8          5.6929   -0.2941   -3.1596 C.ar      1 <0>        -0.1944
     10 C9          5.7523   -1.6051   -3.5901 C.ar      1 <0>        -0.0650
     11 C10         5.0696   -2.5917   -2.9023 C.ar      1 <0>        -0.1521
     12 C11         4.3265   -2.2689   -1.7821 C.ar      1 <0>        -0.0503
     13 C12         4.2642   -0.9591   -1.3469 C.ar      1 <0>        -0.1541
     14 C13         3.4536   -0.6079   -0.1260 C.3       1 <0>         0.1334
     15 N1          2.1616   -0.0550   -0.5400 N.am      1 <0>        -0.4765
     16 C14         2.0349    1.2830   -0.7324 C.2       1 <0>         0.2461
     17 C15         0.8514    1.8171   -1.1145 C.2       1 <0>        -0.1559
     18 C16        -0.2594    0.9857   -1.3155 C.2       1 <0>         0.0040
     19 C17        -0.1301   -0.3582   -1.1217 C.2       1 <0>        -0.2181
     20 C18         1.1132   -0.8795   -0.7250 C.2       1 <0>         0.5178
     21 O2          1.2427   -2.0802   -0.5477 O.2       1 <0>        -0.5094
     22 N2          0.7302    3.2777   -1.3205 N.pl3     1 <0>         0.0493
     23 O3          1.6955    3.9996   -1.1457 O.2       1 <0>        -0.1676
     24 O4         -0.3349    3.7579   -1.6647 O.3       1 <0>        -0.1551
     25 H1          7.4778    4.9190   -4.3384 H         1 <0>         0.1310
     26 H2          5.1488    4.3799   -4.9239 H         1 <0>         0.1327
     27 H3          3.9166    2.6803   -3.6388 H         1 <0>         0.1257
     28 H4          7.3516    2.0676   -1.1702 H         1 <0>         0.1318
     29 H5          8.5802    3.7606   -2.4674 H         1 <0>         0.1328
     30 H6          6.2259    0.4761   -3.6973 H         1 <0>         0.1331
     31 H7          6.3320   -1.8599   -4.4650 H         1 <0>         0.1310
     32 H8          5.1168   -3.6161   -3.2411 H         1 <0>         0.1316
     33 H9          3.7946   -3.0413   -1.2465 H         1 <0>         0.1398
     34 H10         3.2888   -1.5127    0.4774 H         1 <0>         0.1243
     35 H11         3.9968    0.1381    0.4727 H         1 <0>         0.1144
     36 H12         2.8876    1.9279   -0.5793 H         1 <0>         0.1948
     37 H13        -1.2057    1.4042   -1.6247 H         1 <0>         0.1635
     38 H14        -0.9743   -1.0149   -1.2719 H         1 <0>         0.1721
@<TRIPOS>BOND
     1    1    6 ar
     2    1    2 ar
     3    1   25 1
     4    2    3 ar
     5    2   26 1
     6    3    4 ar
     7    3   27 1
     8    4    5 ar
     9    4    7 1
    10    5    6 ar
    11    5   28 1
    12    6   29 1
    13    7    8 1
    14    8   13 ar
    15    8    9 ar
    16    9   10 ar
    17    9   30 1
    18   10   11 ar
    19   10   31 1
    20   11   12 ar
    21   11   32 1
    22   12   13 ar
    23   12   33 1
    24   13   14 1
    25   14   15 1
    26   14   34 1
    27   14   35 1
    28   15   20 am
    29   15   16 1
    30   16   17 2
    31   16   36 1
    32   17   18 1
    33   17   22 1
    34   18   19 2
    35   18   37 1
    36   19   20 1
    37   19   38 1
    38   20   21 2
    39   22   23 2
    40   22   24 1
@<TRIPOS>MOLECULE
ZINC38508526
   41    43     0     0     0
SMALL
USER_CHARGES

@<TRIPOS>ATOM
      1 C1          0.0803    1.5916    0.1949 C.3       1 <0>        -0.0821
      2 C2          1.1172    0.7312    0.8699 C.2       1 <0>        -0.1501
      3 C3          2.4417    0.6757    0.5943 C.2       1 <0>        -0.0221
      4 N1          2.9878   -0.2254    1.4384 N.pl3     1 <0>        -0.2789
      5 N2          2.0838   -0.7190    2.2062 N.2       1 <0>        -0.2386
      6 C4          0.9128   -0.1835    1.9288 C.2       1 <0>        -0.0529
      7 C5         -0.3736   -0.4848    2.5962 C.2       1 <0>         0.6023
      8 O1         -1.3924    0.0817    2.2400 O.2       1 <0>        -0.4807
      9 N3         -0.4181   -1.3784    3.5900 N.2       1 <0>        -0.5781
     10 C6         -0.0685   -1.0211    4.8208 C.2       1 <0>         0.3898
     11 N4          0.1613    0.2326    5.2907 N.pl3     1 <0>        -0.5397
     12 C7          0.5188    0.4155    6.6133 C.ar      1 <0>         0.1466
     13 C8          0.7991    1.6061    7.2980 C.ar      1 <0>        -0.1067
     14 C9          1.1418    1.5841    8.6299 C.ar      1 <0>        -0.0771
     15 C10         1.2197    0.3921    9.3307 C.ar      1 <0>        -0.1254
     16 C11         0.9478   -0.7974    8.6777 C.ar      1 <0>        -0.0348
     17 C12         0.6052   -0.7767    7.3465 C.ar      1 <0>        -0.1809
     18 S1          0.1825   -2.0170    6.1512 S.3       1 <0>         0.1993
     19 C13         0.0310    1.3872    4.3983 C.3       1 <0>         0.0785
     20 C14        -1.4374    1.8101    4.3225 C.3       1 <0>         0.0403
     21 O2         -1.8666    2.2729    5.6045 O.3       1 <0>        -0.3876
     22 C15        -3.2315    2.6944    5.6433 C.3       1 <0>         0.0338
     23 C16         4.4067   -0.5881    1.4737 C.3       1 <0>         0.0849
     24 H1          0.0080    2.5477    0.7133 H         1 <0>         0.0666
     25 H2          0.3686    1.7616   -0.8424 H         1 <0>         0.0668
     26 H3         -0.8858    1.0877    0.2256 H         1 <0>         0.0817
     27 H4          2.9637    1.2456   -0.1602 H         1 <0>         0.1843
     28 H5          0.7459    2.5494    6.7748 H         1 <0>         0.1297
     29 H6          1.3541    2.5130    9.1383 H         1 <0>         0.1352
     30 H7          1.4905    0.3907   10.3762 H         1 <0>         0.1397
     31 H8          1.0046   -1.7353    9.2101 H         1 <0>         0.1403
     32 H9          0.6277    2.2137    4.7841 H         1 <0>         0.1033
     33 H10         0.3836    1.1183    3.4025 H         1 <0>         0.1121
     34 H11        -1.5475    2.6111    3.5915 H         1 <0>         0.0688
     35 H12        -2.0460    0.9574    4.0216 H         1 <0>         0.0744
     36 H13        -3.3788    3.5137    4.9397 H         1 <0>         0.0427
     37 H14        -3.8773    1.8600    5.3698 H         1 <0>         0.0418
     38 H15        -3.4794    3.0309    6.6500 H         1 <0>         0.0880
     39 H16         4.9324    0.0685    2.1670 H         1 <0>         0.0868
     40 H17         4.5095   -1.6218    1.8036 H         1 <0>         0.0990
     41 H18         4.8341   -0.4807    0.4767 H         1 <0>         0.0990
@<TRIPOS>BOND
     1    1    2 1
     2    1   24 1
     3    1   25 1
     4    1   26 1
     5    2    6 1
     6    2    3 2
     7    3    4 1
     8    3   27 1
     9    4    5 1
    10    4   23 1
    11    5    6 2
    12    6    7 1
    13    7    8 2
    14    7    9 1
    15    9   10 2
    16   10   18 1
    17   10   11 1
    18   11   12 1
    19   11   19 1
    20   12   17 ar
    21   12   13 ar
    22   13   14 ar
    23   13   28 1
    24   14   15 ar
    25   14   29 1
    26   15   16 ar
    27   15   30 1
    28   16   17 ar
    29   16   31 1
    30   17   18 1
    31   19   20 1
    32   19   32 1
    33   19   33 1
    34   20   21 1
    35   20   34 1
    36   20   35 1
    37   21   22 1
    38   22   36 1
    39   22   37 1
    40   22   38 1
    41   23   39 1
    42   23   40 1
    43   23   41 1
@<TRIPOS>MOLECULE
ZINC57148550
   42    45     0     0     0
SMALL
USER_CHARGES

@<TRIPOS>ATOM
      1 C1          2.5215   -2.7503    1.3612 C.3       1 <0>         0.0693
      2 N1          1.3927   -2.1818    0.6204 N.pl3     1 <0>        -0.4726
      3 C2          1.0237   -2.4892   -0.6540 C.2       1 <0>         0.2219
      4 N2         -0.0255   -1.7814   -0.9673 N.2       1 <0>        -0.4316
      5 C3         -0.3669   -1.0052    0.0733 C.2       1 <0>        -0.0037
      6 C4          0.5055   -1.2448    1.0810 C.2       1 <0>         0.3858
      7 N3          0.5034   -0.6497    2.3435 N.pl3     1 <0>        -0.6196
      8 C5          0.4093    0.7969    2.6114 C.3       1 <0>         0.1172
      9 C6          1.0534    0.9844    4.0077 C.3       1 <0>        -0.1306
     10 C7          0.5803   -0.2970    4.7436 C.3       1 <0>        -0.1197
     11 C8          0.5881   -1.3622    3.6268 C.3       1 <0>         0.1911
     12 H1          1.5133   -1.9367    3.6715 H         1 <0>         0.0761
     13 C9         -0.5967   -2.2805    3.7824 C.ar      1 <0>        -0.1031
     14 C10        -1.7703   -1.9956    3.1542 C.ar      1 <0>        -0.0977
     15 C11        -2.8763   -2.8326    3.2863 C.ar      1 <0>        -0.1150
     16 C12        -2.8156   -3.9593    4.0477 C.ar      1 <0>        -0.1015
     17 C13        -1.6211   -4.2863    4.7113 C.ar      1 <0>        -0.0538
     18 C14        -0.4940   -3.4381    4.5719 C.ar      1 <0>        -0.0382
     19 C15         0.7025   -3.7684    5.2311 C.ar      1 <0>        -0.1175
     20 C16         0.7649   -4.8980    5.9875 C.ar      1 <0>        -0.1094
     21 C17        -0.3415   -5.7355    6.1193 C.ar      1 <0>        -0.1203
     22 C18        -1.5205   -5.4408    5.5066 C.ar      1 <0>        -0.0996
     23 N4         -1.5033   -0.0567    0.1145 N.pl3     1 <0>         0.0842
     24 O1         -2.1234    0.1878   -0.8942 O.2       1 <0>        -0.1430
     25 O2         -1.8110    0.4731    1.1567 O.3       1 <0>        -0.1726
     26 H2          2.1929   -3.6408    1.8971 H         1 <0>         0.0847
     27 H3          3.3156   -3.0182    0.6642 H         1 <0>         0.1029
     28 H4          2.8960   -2.0151    2.0735 H         1 <0>         0.0900
     29 H5          1.5184   -3.2010   -1.2983 H         1 <0>         0.2319
     30 H6          0.9635    1.3587    1.8594 H         1 <0>         0.0669
     31 H7         -0.6339    1.1124    2.6294 H         1 <0>         0.0963
     32 H8          2.1406    1.0146    3.9356 H         1 <0>         0.0758
     33 H9          0.6709    1.8799    4.4973 H         1 <0>         0.0935
     34 H10         1.2759   -0.5639    5.5391 H         1 <0>         0.0877
     35 H11        -0.4270   -0.1651    5.1387 H         1 <0>         0.0862
     36 H12        -1.8453   -1.1072    2.5446 H         1 <0>         0.1376
     37 H13        -3.7957   -2.5835    2.7772 H         1 <0>         0.1237
     38 H14        -3.6811   -4.5984    4.1415 H         1 <0>         0.1282
     39 H15         1.5681   -3.1294    5.1376 H         1 <0>         0.1231
     40 H16         1.6855   -5.1495    6.4930 H         1 <0>         0.1235
     41 H17        -0.2651   -6.6262    6.7254 H         1 <0>         0.1241
     42 H18        -2.3696   -6.0987    5.6184 H         1 <0>         0.1278
@<TRIPOS>BOND
     1    1    2 1
     2    1   26 1
     3    1   27 1
     4    1   28 1
     5    2    6 1
     6    2    3 1
     7    3    4 2
     8    3   29 1
     9    4    5 1
    10    5    6 2
    11    5   23 1
    12    6    7 1
    13    7   11 1
    14    7    8 1
    15    8    9 1
    16    8   30 1
    17    8   31 1
    18    9   10 1
    19    9   32 1
    20    9   33 1
    21   10   11 1
    22   10   34 1
    23   10   35 1
    24   11   12 1
    25   11   13 1
    26   13   18 ar
    27   13   14 ar
    28   14   15 ar
    29   14   36 1
    30   15   16 ar
    31   15   37 1
    32   16   17 ar
    33   16   38 1
    34   17   22 ar
    35   17   18 ar
    36   18   19 ar
    37   19   20 ar
    38   19   39 1
    39   20   21 ar
    40   20   40 1
    41   21   22 ar
    42   21   41 1
    43   22   42 1
    44   23   24 2
    45   23   25 1
@<TRIPOS>MOLECULE
ZINC35453714
   40    44     0     0     0
SMALL
USER_CHARGES

@<TRIPOS>ATOM
      1 C1         -0.0162    1.3457    0.0094 C.2       1 <0>        -0.2214
      2 C2          1.3214    1.7772   -0.0010 C.2       1 <0>        -0.1132
      3 C3          2.0958    0.6541   -0.0144 C.2       1 <0>         0.0125
      4 O1          1.2775   -0.4177   -0.0124 O.3       1 <0>        -0.1432
      5 C4          0.0021   -0.0041    0.0020 C.2       1 <0>         0.0149
      6 C5          3.5638    0.6186   -0.0286 C.2       1 <0>         0.3743
      7 N1          4.3100   -0.4657   -0.0469 N.2       1 <0>        -0.5189
      8 C6          5.6077   -0.1266   -0.0556 C.2       1 <0>         0.3110
      9 N2          5.7053    1.1812   -0.0430 N.2       1 <0>        -0.3265
     10 O2          4.3798    1.6894   -0.0312 O.3       1 <0>        -0.0872
     11 C7          6.7476   -1.0767   -0.0761 C.ar      1 <0>        -0.0515
     12 C8          6.5061   -2.4539   -0.0939 C.ar      1 <0>        -0.0510
     13 C9          7.5457   -3.3394   -0.1129 C.ar      1 <0>        -0.1127
     14 C10         8.8558   -2.8764   -0.1152 C.ar      1 <0>         0.0729
     15 C11         9.1155   -1.4948   -0.0979 C.ar      1 <0>         0.0372
     16 C12         8.0488   -0.5949   -0.0834 C.ar      1 <0>        -0.0065
     17 N3         10.4655   -1.3454   -0.1048 N.2       1 <0>        -0.4862
     18 C13        11.0340   -2.5153   -0.1246 C.2       1 <0>         0.2665
     19 N4         10.0895   -3.4945   -0.1318 N.pl3     1 <0>        -0.4828
     20 C14        10.3365   -4.9384   -0.1528 C.3       1 <0>         0.1331
     21 C15        11.2084   -5.3429    1.0538 C.3       1 <0>        -0.1350
     22 C16        12.1382   -6.4494    0.4967 C.3       1 <0>        -0.1237
     23 C17        12.4554   -5.9418   -0.9319 C.3       1 <0>        -0.1255
     24 C18        11.1294   -5.3192   -1.4154 C.3       1 <0>        -0.1375
     25 H1         -0.8935    1.9755    0.0252 H         1 <0>         0.1651
     26 H2          1.6689    2.7997    0.0006 H         1 <0>         0.1674
     27 H3         -0.8671   -0.6450    0.0069 H         1 <0>         0.2200
     28 H4          5.4901   -2.8201   -0.0922 H         1 <0>         0.1466
     29 H5          7.3492   -4.4013   -0.1258 H         1 <0>         0.1312
     30 H6          8.2349    0.4689   -0.0738 H         1 <0>         0.1415
     31 H7         12.1006   -2.6847   -0.1342 H         1 <0>         0.2132
     32 H8          9.3904   -5.4792   -0.1288 H         1 <0>         0.1045
     33 H9         11.7941   -4.4927    1.4034 H         1 <0>         0.0784
     34 H10        10.5872   -5.7362    1.8586 H         1 <0>         0.0787
     35 H11        13.0487   -6.5243    1.0911 H         1 <0>         0.0765
     36 H12        11.6196   -7.4074    0.4600 H         1 <0>         0.0739
     37 H13        13.2425   -5.1884   -0.9030 H         1 <0>         0.0708
     38 H14        12.7443   -6.7721   -1.5763 H         1 <0>         0.0745
     39 H15        10.5685   -6.0454   -2.0036 H         1 <0>         0.0812
     40 H16        11.3304   -4.4297   -2.0125 H         1 <0>         0.0766
@<TRIPOS>BOND
     1    1    5 2
     2    1    2 1
     3    1   25 1
     4    2    3 2
     5    2   26 1
     6    3    4 1
     7    3    6 1
     8    4    5 1
     9    5   27 1
    10    6   10 1
    11    6    7 2
    12    7    8 1
    13    8    9 2
    14    8   11 1
    15    9   10 1
    16   11   16 ar
    17   11   12 ar
    18   12   13 ar
    19   12   28 1
    20   13   14 ar
    21   13   29 1
    22   14   19 1
    23   14   15 ar
    24   15   16 ar
    25   15   17 1
    26   16   30 1
    27   17   18 2
    28   18   19 1
    29   18   31 1
    30   19   20 1
    31   20   24 1
    32   20   21 1
    33   20   32 1
    34   21   22 1
    35   21   33 1
    36   21   34 1
    37   22   23 1
    38   22   35 1
    39   22   36 1
    40   23   24 1
    41   23   37 1
    42   23   38 1
    43   24   39 1
    44   24   40 1
@<TRIPOS>MOLECULE
ZINC11495168
   32    33     0     0     0
SMALL
USER_CHARGES
(2-chloro-4-nitro-phenyl)-(2-methylmorpholin-4-yl)-methanone
@<TRIPOS>ATOM
      1 C1         -2.3426    4.2155   -0.4232 C.3       1 <0>        -0.1453
      2 C2         -1.1219    3.3097   -0.5971 C.3       1 <0>         0.0732
      3 H1         -1.0469    2.9958   -1.6383 H         1 <0>         0.0652
      4 C3         -1.2663    2.0765    0.2950 C.3       1 <0>         0.0833
      5 N1         -0.0052    1.3193    0.2571 N.am      1 <0>        -0.6056
      6 C4          1.2483    2.0508    0.4998 C.3       1 <0>         0.0594
      7 C5          1.2707    3.2862   -0.4075 C.3       1 <0>         0.0479
      8 O1          0.0597    4.0244   -0.2275 O.3       1 <0>        -0.3721
      9 C6          0.0021   -0.0041    0.0020 C.2       1 <0>         0.5587
     10 O2         -1.0474   -0.6047   -0.1230 O.2       1 <0>        -0.4985
     11 C7          1.2857   -0.7249   -0.1257 C.ar      1 <0>        -0.0701
     12 C8          2.2486   -0.6262    0.8806 C.ar      1 <0>        -0.0800
     13 C9          3.4427   -1.3049    0.7573 C.ar      1 <0>        -0.0526
     14 C10         3.6926   -2.0753   -0.3652 C.ar      1 <0>        -0.0146
     15 C11         2.7465   -2.1742   -1.3686 C.ar      1 <0>        -0.0487
     16 C12         1.5438   -1.5036   -1.2563 C.ar      1 <0>        -0.0009
     17 Cl1         0.3564   -1.6289   -2.5165 Cl        1 <0>        -0.0092
     18 N2          4.9789   -2.7965   -0.4921 N.pl3     1 <0>         0.0224
     19 O3          5.2020   -3.4749   -1.4788 O.2       1 <0>        -0.1434
     20 O4          5.8144   -2.7114    0.3901 O.3       1 <0>        -0.1411
     21 H2         -2.2363    5.0945   -1.0589 H         1 <0>         0.0713
     22 H3         -3.2431    3.6699   -0.7052 H         1 <0>         0.0771
     23 H4         -2.4180    4.5275    0.6185 H         1 <0>         0.0686
     24 H5         -2.0806    1.4522   -0.0728 H         1 <0>         0.1062
     25 H6         -1.4761    2.3894    1.3178 H         1 <0>         0.0842
     26 H7          1.2961    2.3611    1.5436 H         1 <0>         0.0898
     27 H8          2.0985    1.4095    0.2677 H         1 <0>         0.0965
     28 H9          2.1223    3.9144   -0.1463 H         1 <0>         0.1126
     29 H10         1.3544    2.9723   -1.4480 H         1 <0>         0.0580
     30 H11         2.0573   -0.0223    1.7553 H         1 <0>         0.1644
     31 H12         4.1865   -1.2320    1.5369 H         1 <0>         0.1704
     32 H13         2.9482   -2.7765   -2.2421 H         1 <0>         0.1730
@<TRIPOS>BOND
     1    1    2 1
     2    1   21 1
     3    1   22 1
     4    1   23 1
     5    2    3 1
     6    2    8 1
     7    2    4 1
     8    4    5 1
     9    4   24 1
    10    4   25 1
    11    5    6 1
    12    5    9 am
    13    6    7 1
    14    6   26 1
    15    6   27 1
    16    7    8 1
    17    7   28 1
    18    7   29 1
    19    9   10 2
    20    9   11 1
    21   11   16 ar
    22   11   12 ar
    23   12   13 ar
    24   12   30 1
    25   13   14 ar
    26   13   31 1
    27   14   15 ar
    28   14   18 1
    29   15   16 ar
    30   15   32 1
    31   16   17 1
    32   18   19 2
    33   18   20 1
@<TRIPOS>MOLECULE
ZINC13153879
   38    40     0     0     0
SMALL
USER_CHARGES

@<TRIPOS>ATOM
      1 C1         -0.0075    1.5155    0.0254 C.3       1 <0>        -0.1455
      2 C2          0.0102   -0.0144    0.0122 C.3       1 <0>         0.0749
      3 H1          0.5191   -0.3649   -0.8857 H         1 <0>         0.0647
      4 C3         -1.4286   -0.5431    0.0246 C.3       1 <0>         0.1172
      5 N1         -1.3849   -2.0034    0.2006 N.pl3     1 <0>        -0.6718
      6 C4         -0.5748   -2.5431    1.3042 C.3       1 <0>         0.1161
      7 C5          0.8224   -1.9169    1.2294 C.3       1 <0>         0.0757
      8 H2          1.3346   -2.2751    0.3364 H         1 <0>         0.0640
      9 O1          0.6989   -0.4939    1.1695 O.3       1 <0>        -0.3724
     10 C6          1.6254   -2.3094    2.4712 C.3       1 <0>        -0.1456
     11 C7         -2.0811   -2.8392   -0.6412 C.2       1 <0>         0.5356
     12 C8         -3.3746   -3.2947   -0.2854 C.2       1 <0>        -0.4153
     13 C9         -4.0545   -4.1537   -1.1835 C.2       1 <0>         0.5291
     14 O2         -5.1687   -4.5695   -0.9192 O.2       1 <0>        -0.4811
     15 N2         -3.4469   -4.5034   -2.3378 N.am      1 <0>        -0.4294
     16 C10        -4.0941   -5.3294   -3.2073 C.2       1 <0>         0.1095
     17 C11        -3.5148   -5.6999   -4.3717 C.2       1 <0>        -0.1657
     18 C12        -2.2340   -5.2350   -4.6982 C.2       1 <0>        -0.0141
     19 C13        -1.5787   -4.4077   -3.8347 C.2       1 <0>        -0.1428
     20 C14        -2.1974   -4.0330   -2.6289 C.2       1 <0>         0.4233
     21 N3         -1.5495   -3.2199   -1.7930 N.2       1 <0>        -0.5665
     22 C15        -3.9696   -2.9033    0.9315 C.2       1 <0>         0.3941
     23 O3         -5.0372   -3.3771    1.2656 O.2       1 <0>        -0.4598
     24 H3          1.0159    1.8907    0.0184 H         1 <0>         0.0680
     25 H4         -0.5343    1.8804   -0.8563 H         1 <0>         0.0727
     26 H5         -0.5166    1.8652    0.9235 H         1 <0>         0.0667
     27 H6         -1.9791   -0.0903    0.8492 H         1 <0>         0.0744
     28 H7         -1.9167   -0.3017   -0.9197 H         1 <0>         0.0812
     29 H8         -1.0393   -2.2916    2.2577 H         1 <0>         0.0743
     30 H9         -0.4974   -3.6261    1.2073 H         1 <0>         0.0809
     31 H10         1.7160   -3.3946    2.5173 H         1 <0>         0.0728
     32 H11         2.6187   -1.8638    2.4174 H         1 <0>         0.0684
     33 H12         1.1136   -1.9493    3.3637 H         1 <0>         0.0671
     34 H13        -5.0815   -5.6926   -2.9634 H         1 <0>         0.1872
     35 H14        -4.0400   -6.3554   -5.0507 H         1 <0>         0.1661
     36 H15        -1.7689   -5.5301   -5.6272 H         1 <0>         0.1598
     37 H16        -0.5908   -4.0434   -4.0750 H         1 <0>         0.1713
     38 H17        -3.4764   -2.1824    1.5666 H         1 <0>         0.0949
@<TRIPOS>BOND
     1    1    2 1
     2    1   24 1
     3    1   25 1
     4    1   26 1
     5    2    3 1
     6    2    9 1
     7    2    4 1
     8    4    5 1
     9    4   27 1
    10    4   28 1
    11    5    6 1
    12    5   11 1
    13    6    7 1
    14    6   29 1
    15    6   30 1
    16    7    8 1
    17    7    9 1
    18    7   10 1
    19   10   31 1
    20   10   32 1
    21   10   33 1
    22   11   21 1
    23   11   12 2
    24   12   13 1
    25   12   22 1
    26   13   14 2
    27   13   15 am
    28   15   20 1
    29   15   16 1
    30   16   17 2
    31   16   34 1
    32   17   18 1
    33   17   35 1
    34   18   19 2
    35   18   36 1
    36   19   20 1
    37   19   37 1
    38   20   21 2
    39   22   23 2
    40   22   38 1
@<TRIPOS>MOLECULE
ZINC47670668
   29    30     0     0     0
SMALL
USER_CHARGES

@<TRIPOS>ATOM
      1 C1          1.9995    1.3852   -0.8905 C.ar      1 <0>        -0.0677
      2 C2          1.1573    2.0671   -0.0326 C.ar      1 <0>        -0.0908
      3 C3          0.3369    1.3654    0.8340 C.ar      1 <0>         0.1436
      4 C4          0.3611   -0.0191    0.8403 C.ar      1 <0>         0.0203
      5 C5          1.2039   -0.6987   -0.0183 C.ar      1 <0>        -0.6151
      6 C6          2.0229    0.0032   -0.8834 C.ar      1 <0>        -0.0301
      7 S1          1.2355   -2.4604   -0.0102 S.o2      1 <0>         2.6850
      8 O1          2.0575   -2.8469    1.0826 O.2       1 <0>        -0.9171
      9 O2         -0.1124   -2.8913   -0.1393 O.2       1 <0>        -0.9201
     10 N1          2.0204   -2.9424   -1.3864 N.pl3     1 <0>        -1.0050
     11 C7          1.4059   -3.0998   -2.7128 C.3       1 <0>         0.1107
     12 C8          2.5098   -3.5885   -3.6741 C.3       1 <0>        -0.1287
     13 C9          3.5517   -4.2211   -2.7140 C.3       1 <0>        -0.1288
     14 C10         3.4524   -3.2784   -1.4859 C.3       1 <0>         0.1076
     15 N2         -0.5150   -0.7707    1.7666 N.pl3     1 <0>        -0.0084
     16 O3         -1.6584   -1.0112    1.4559 O.2       1 <0>        -0.0780
     17 O4         -0.0873   -1.1443    2.8339 O.3       1 <0>        -0.1222
     18 F1         -0.4865    2.0309    1.6734 F         1 <0>        -0.1099
     19 H1          2.6364    1.9323   -1.5699 H         1 <0>         0.1660
     20 H2          1.1394    3.1470   -0.0381 H         1 <0>         0.1715
     21 H3          2.6811   -0.5288   -1.5543 H         1 <0>         0.1634
     22 H4          0.6037   -3.8362   -2.6646 H         1 <0>         0.0820
     23 H5          1.0131   -2.1425   -3.0554 H         1 <0>         0.0701
     24 H6          2.1175   -4.3357   -4.3639 H         1 <0>         0.0877
     25 H7          2.9458   -2.7508   -4.2184 H         1 <0>         0.0794
     26 H8          3.2720   -5.2413   -2.4512 H         1 <0>         0.0819
     27 H9          4.5513   -4.1910   -3.1475 H         1 <0>         0.0895
     28 H10         4.0432   -2.3769   -1.6480 H         1 <0>         0.0727
     29 H11         3.7846   -3.7938   -0.5848 H         1 <0>         0.0905
@<TRIPOS>BOND
     1    1    6 ar
     2    1    2 ar
     3    1   19 1
     4    2    3 ar
     5    2   20 1
     6    3    4 ar
     7    3   18 1
     8    4    5 ar
     9    4   15 1
    10    5    6 ar
    11    5    7 1
    12    6   21 1
    13    7    8 2
    14    7    9 2
    15    7   10 1
    16   10   14 1
    17   10   11 1
    18   11   12 1
    19   11   22 1
    20   11   23 1
    21   12   13 1
    22   12   24 1
    23   12   25 1
    24   13   14 1
    25   13   26 1
    26   13   27 1
    27   14   28 1
    28   14   29 1
    29   15   16 2
    30   15   17 1
@<TRIPOS>MOLECULE
ZINC59833052
   35    36     0     0     0
SMALL
USER_CHARGES

@<TRIPOS>ATOM
      1 C1         -1.3054    2.7026    0.5558 C.3       1 <0>        -0.1670
      2 C2         -1.2190    1.7632   -0.6487 C.3       1 <0>         0.1238
      3 N1         -2.1467    0.6446   -0.4632 N.pl3     1 <0>        -0.3556
      4 C3         -3.1080    0.2677   -1.3268 C.2       1 <0>         0.1162
      5 C4         -3.7522   -0.8217   -0.7770 C.2       1 <0>        -0.2375
      6 C5         -3.1349   -1.0893    0.4650 C.2       1 <0>         0.1024
      7 N2         -2.1798   -0.2169    0.6391 N.2       1 <0>        -0.2934
      8 C6         -4.8747   -1.5668   -1.3741 C.2       1 <0>         0.2558
      9 N3         -5.3903   -2.5794   -0.7443 N.2       1 <0>        -0.2967
     10 N4         -6.3863   -3.3517   -1.3563 N.am      1 <0>        -0.3543
     11 C7         -7.6425   -3.3457   -0.8467 C.2       1 <0>         0.2220
     12 C8         -8.6345   -4.0808   -1.4117 C.2       1 <0>        -0.2436
     13 C9         -8.3726   -4.8616   -2.5374 C.2       1 <0>         0.0966
     14 C10        -7.0830   -4.8722   -3.0665 C.2       1 <0>        -0.1875
     15 C11        -6.0819   -4.0838   -2.4447 C.2       1 <0>         0.5320
     16 O1         -4.9473   -4.0721   -2.8917 O.2       1 <0>        -0.5302
     17 C12        -6.7760   -5.6614   -4.2213 C.1       1 <0>         0.2814
     18 N5         -6.5324   -6.2875   -5.1373 N.1       1 <0>        -0.4192
     19 C13        -9.4667   -5.6813   -3.1715 C.3       1 <0>        -0.1362
     20 C14        -7.9433   -2.5082    0.3695 C.3       1 <0>        -0.1314
     21 H1         -0.6151    3.5348    0.4178 H         1 <0>         0.0796
     22 H2         -2.3221    3.0850    0.6462 H         1 <0>         0.0622
     23 H3         -1.0404    2.1572    1.4616 H         1 <0>         0.0732
     24 H4         -1.4839    2.3085   -1.5545 H         1 <0>         0.1018
     25 H5         -0.2022    1.3808   -0.7391 H         1 <0>         0.0925
     26 H6         -3.3337    0.7325   -2.2752 H         1 <0>         0.1884
     27 H7         -3.4033   -1.8807    1.1492 H         1 <0>         0.1944
     28 H8         -5.2687   -1.2711   -2.3352 H         1 <0>         0.1229
     29 H9         -9.6279   -4.0611   -0.9886 H         1 <0>         0.1630
     30 H10        -9.9732   -5.0857   -3.9310 H         1 <0>         0.0946
     31 H11        -9.0343   -6.5685   -3.6341 H         1 <0>         0.0774
     32 H12       -10.1840   -5.9825   -2.4080 H         1 <0>         0.0891
     33 H13        -8.2581   -1.5127    0.0564 H         1 <0>         0.0917
     34 H14        -8.7412   -2.9772    0.9453 H         1 <0>         0.0978
     35 H15        -7.0483   -2.4289    0.9866 H         1 <0>         0.0938
@<TRIPOS>BOND
     1    1    2 1
     2    1   21 1
     3    1   22 1
     4    1   23 1
     5    2    3 1
     6    2   24 1
     7    2   25 1
     8    3    7 1
     9    3    4 1
    10    4    5 2
    11    4   26 1
    12    5    6 1
    13    5    8 1
    14    6    7 2
    15    6   27 1
    16    8    9 2
    17    8   28 1
    18    9   10 1
    19   10   15 am
    20   10   11 1
    21   11   12 2
    22   11   20 1
    23   12   13 1
    24   12   29 1
    25   13   14 2
    26   13   19 1
    27   14   15 1
    28   14   17 1
    29   15   16 2
    30   17   18 3
    31   19   30 1
    32   19   31 1
    33   19   32 1
    34   20   33 1
    35   20   34 1
    36   20   35 1
@<TRIPOS>MOLECULE
ZINC65620400
   43    43     0     0     0
SMALL
USER_CHARGES

@<TRIPOS>ATOM
      1 C1         -0.0187    1.5258    0.0104 C.3       1 <0>        -0.1522
      2 C2          0.0021   -0.0041    0.0020 C.3       1 <0>         0.0790
      3 O1          0.6709   -0.4649   -1.1737 O.3       1 <0>        -0.3593
      4 C3          0.7758   -1.7975   -1.3346 C.2       1 <0>         0.6571
      5 O2          0.3120   -2.5487   -0.4996 O.2       1 <0>        -0.5680
      6 N1          1.3951   -2.2983   -2.4219 N.am      1 <0>        -0.5836
      7 C4          1.9542   -1.3927   -3.4286 C.3       1 <0>         0.0869
      8 C5          1.5092   -3.7484   -2.5970 C.3       1 <0>         0.1148
      9 C6          0.3112   -4.2585   -3.3557 C.2       1 <0>         0.5000
     10 O3         -0.5528   -3.4868   -3.7149 O.2       1 <0>        -0.5235
     11 N2          0.1999   -5.5722   -3.6352 N.am      1 <0>        -0.6143
     12 C7          1.2323   -6.5284   -3.2046 C.3       1 <0>         0.0748
     13 C8          1.6428   -7.3745   -4.4152 C.3       1 <0>         0.0710
     14 O4          0.4727   -7.9323   -5.0181 O.3       1 <0>        -0.3654
     15 C9         -0.4405   -6.9603   -5.5330 C.3       1 <0>         0.1009
     16 C10        -0.9605   -6.0937   -4.3747 C.3       1 <0>         0.0902
     17 C11         0.2767   -6.0764   -6.5553 C.3       1 <0>        -0.1740
     18 C12        -1.6170   -7.6703   -6.2058 C.3       1 <0>        -0.1382
     19 C13         2.5701   -8.5028   -3.9592 C.3       1 <0>        -0.1457
     20 H1          1.0039    1.9031    0.0027 H         1 <0>         0.0669
     21 H2         -0.5459    1.8868   -0.8726 H         1 <0>         0.0671
     22 H3         -0.5289    1.8773    0.9072 H         1 <0>         0.0829
     23 H4          0.5293   -0.3651    0.8851 H         1 <0>         0.0686
     24 H5         -1.0205   -0.3814    0.0098 H         1 <0>         0.0683
     25 H6          2.9876   -1.1587   -3.1729 H         1 <0>         0.0625
     26 H7          1.9216   -1.8723   -4.4068 H         1 <0>         0.0725
     27 H8          1.3694   -0.4733   -3.4550 H         1 <0>         0.0820
     28 H9          2.4171   -3.9766   -3.1553 H         1 <0>         0.1162
     29 H10         1.5526   -4.2300   -1.6201 H         1 <0>         0.1196
     30 H11         2.0985   -5.9869   -2.8245 H         1 <0>         0.0933
     31 H12         0.8312   -7.1748   -2.4239 H         1 <0>         0.0837
     32 H13         2.1613   -6.7463   -5.1394 H         1 <0>         0.0683
     33 H14        -1.5785   -6.6971   -3.7099 H         1 <0>         0.0772
     34 H15        -1.5470   -5.2643   -4.7699 H         1 <0>         0.1015
     35 H16         0.6481   -6.6944   -7.3728 H         1 <0>         0.0673
     36 H17        -0.4201   -5.3356   -6.9474 H         1 <0>         0.0692
     37 H18         1.1132   -5.5696   -6.0741 H         1 <0>         0.0578
     38 H19        -2.1283   -8.2978   -5.4758 H         1 <0>         0.0672
     39 H20        -2.3127   -6.9286   -6.5981 H         1 <0>         0.0750
     40 H21        -1.2480   -8.2903   -7.0228 H         1 <0>         0.0699
     41 H22         2.0495   -9.1314   -3.2367 H         1 <0>         0.0677
     42 H23         2.8615   -9.1040   -4.8204 H         1 <0>         0.0696
     43 H24         3.4599   -8.0769   -3.4956 H         1 <0>         0.0751
@<TRIPOS>BOND
     1    1    2 1
     2    1   20 1
     3    1   21 1
     4    1   22 1
     5    2    3 1
     6    2   23 1
     7    2   24 1
     8    3    4 1
     9    4    5 2
    10    4    6 am
    11    6    7 1
    12    6    8 1
    13    7   25 1
    14    7   26 1
    15    7   27 1
    16    8    9 1
    17    8   28 1
    18    8   29 1
    19    9   10 2
    20    9   11 am
    21   11   16 1
    22   11   12 1
    23   12   13 1
    24   12   30 1
    25   12   31 1
    26   13   14 1
    27   13   19 1
    28   13   32 1
    29   14   15 1
    30   15   16 1
    31   15   17 1
    32   15   18 1
    33   16   33 1
    34   16   34 1
    35   17   35 1
    36   17   36 1
    37   17   37 1
    38   18   38 1
    39   18   39 1
    40   18   40 1
    41   19   41 1
    42   19   42 1
    43   19   43 1
@<TRIPOS>MOLECULE
ZINC03173236
   38    41     0     0     0
SMALL
USER_CHARGES
N-benzoimidazol-1-yl-1-(5-chloro-3-methyl-1-phenyl-pyrazol-4-yl)-methanimine
@<TRIPOS>ATOM
      1 C1          6.5652    7.1896   -0.0346 C.3       1 <0>        -0.0822
      2 C2          6.7967    5.7005   -0.0371 C.2       1 <0>         0.1285
      3 C3          5.7936    4.7058   -0.0272 C.2       1 <0>        -0.1926
      4 C4          6.4318    3.4814   -0.0399 C.2       1 <0>         0.1740
      5 N1          7.7606    3.7208   -0.0513 N.pl3     1 <0>        -0.3011
      6 N2          7.9591    5.1061   -0.0458 N.2       1 <0>        -0.2619
      7 C5          8.7691    2.7479   -0.0666 C.ar      1 <0>         0.1295
      8 C6          8.5953    1.5549    0.6223 C.ar      1 <0>        -0.1220
      9 C7          9.5891    0.5960    0.6014 C.ar      1 <0>        -0.0977
     10 C8         10.7607    0.8275   -0.0956 C.ar      1 <0>        -0.1090
     11 C9         10.9387    2.0166   -0.7786 C.ar      1 <0>        -0.1015
     12 C10         9.9465    2.9772   -0.7659 C.ar      1 <0>        -0.0981
     13 Cl1         5.6673    1.9228   -0.0418 Cl        1 <0>         0.0391
     14 C11         4.3371    4.9328   -0.0125 C.2       1 <0>         0.1867
     15 N3          3.5227    3.9219   -0.0101 N.2       1 <0>        -0.2487
     16 N4          2.1385    4.1376    0.0039 N.pl3     1 <0>        -0.3506
     17 C12         1.5096    5.3455    0.0164 C.2       1 <0>         0.2232
     18 N5          0.2183    5.1772    0.0278 N.2       1 <0>        -0.4726
     19 C13        -0.0698    3.8504    0.0234 C.ar      1 <0>         0.0419
     20 C14         1.1575    3.1641    0.0080 C.ar      1 <0>         0.0818
     21 C15         1.1748    1.7766    0.0004 C.ar      1 <0>        -0.0985
     22 C16        -0.0126    1.0758    0.0080 C.ar      1 <0>        -0.1000
     23 C17        -1.2263    1.7483    0.0174 C.ar      1 <0>        -0.1248
     24 C18        -1.2633    3.1242    0.0313 C.ar      1 <0>        -0.0620
     25 H1          6.5197    7.5484    0.9937 H         1 <0>         0.0915
     26 H2          7.3836    7.6854   -0.5566 H         1 <0>         0.0873
     27 H3          5.6248    7.4119   -0.5389 H         1 <0>         0.0862
     28 H4          7.6824    1.3755    1.1708 H         1 <0>         0.1328
     29 H5          9.4528   -0.3338    1.1337 H         1 <0>         0.1374
     30 H6         11.5382    0.0780   -0.1067 H         1 <0>         0.1341
     31 H7         11.8548    2.1944   -1.3224 H         1 <0>         0.1372
     32 H8         10.0861    3.9057   -1.2996 H         1 <0>         0.1371
     33 H9          3.9476    5.9400   -0.0037 H         1 <0>         0.1378
     34 H10         2.0089    6.3031    0.0162 H         1 <0>         0.2133
     35 H11         2.1160    1.2470   -0.0118 H         1 <0>         0.1250
     36 H12         0.0021   -0.0041    0.0020 H         1 <0>         0.1325
     37 H13        -2.1493    1.1876    0.0184 H         1 <0>         0.1331
     38 H14        -2.2118    3.6407    0.0435 H         1 <0>         0.1334
@<TRIPOS>BOND
     1    1    2 1
     2    1   25 1
     3    1   26 1
     4    1   27 1
     5    2    6 2
     6    2    3 1
     7    3    4 2
     8    3   14 1
     9    4    5 1
    10    4   13 1
    11    5    6 1
    12    5    7 1
    13    7   12 ar
    14    7    8 ar
    15    8    9 ar
    16    8   28 1
    17    9   10 ar
    18    9   29 1
    19   10   11 ar
    20   10   30 1
    21   11   12 ar
    22   11   31 1
    23   12   32 1
    24   14   15 2
    25   14   33 1
    26   15   16 1
    27   16   20 1
    28   16   17 1
    29   17   18 2
    30   17   34 1
    31   18   19 1
    32   19   24 ar
    33   19   20 ar
    34   20   21 ar
    35   21   22 ar
    36   21   35 1
    37   22   23 ar
    38   22   36 1
    39   23   24 ar
    40   23   37 1
    41   24   38 1
@<TRIPOS>MOLECULE
ZINC13534843
   38    41     0     0     0
SMALL
USER_CHARGES
N-[(4-fluorophenyl)methyl]-1-(9-methyltetrazolo[1,5-a]quinolin-4-yl)methanimine
@<TRIPOS>ATOM
      1 C1          0.9618    6.2911    8.1065 C.3       1 <0>        -0.1307
      2 C2          2.1328    6.5820    7.2036 C.ar      1 <0>        -0.0766
      3 C3          3.2081    7.3002    7.6794 C.ar      1 <0>        -0.0797
      4 C4          4.2931    7.5757    6.8585 C.ar      1 <0>        -0.1084
      5 C5          4.3124    7.1399    5.5655 C.ar      1 <0>        -0.0771
      6 C6          3.2296    6.4067    5.0575 C.ar      1 <0>        -0.0738
      7 C7          2.1282    6.1257    5.8887 C.ar      1 <0>         0.1573
      8 N1          1.0558    5.4061    5.4061 N.pl3     1 <0>        -0.3116
      9 C8          1.0348    4.9589    4.1177 C.2       1 <0>         0.2723
     10 C9          2.1724    5.2317    3.2313 C.2       1 <0>        -0.0312
     11 C10         3.2447    5.9513    3.7156 C.2       1 <0>        -0.0189
     12 C11         2.1662    4.7485    1.8407 C.2       1 <0>         0.1653
     13 N2          1.1550    4.0734    1.3942 N.2       1 <0>        -0.4584
     14 C12         1.1489    3.5926    0.0104 C.3       1 <0>         0.0741
     15 C13         1.1707    2.0857    0.0021 C.ar      1 <0>        -0.0940
     16 C14        -0.0167    1.3778    0.0096 C.ar      1 <0>        -0.0626
     17 C15         0.0021   -0.0041    0.0020 C.ar      1 <0>        -0.1530
     18 C16         1.2107   -0.6794   -0.0131 C.ar      1 <0>         0.1019
     19 C17         2.3993    0.0307   -0.0206 C.ar      1 <0>        -0.1549
     20 C18         2.3781    1.4125   -0.0130 C.ar      1 <0>        -0.0827
     21 F1          1.2302   -2.0303   -0.0201 F         1 <0>        -0.1387
     22 N3         -0.1084    4.3200    3.9534 N.2       1 <0>        -0.2765
     23 N4         -0.7941    4.3460    5.0403 N.2       1 <0>        -0.0257
     24 N5         -0.1544    4.9747    5.9678 N.2       1 <0>        -0.0896
     25 H1          0.2298    7.0943    8.0223 H         1 <0>         0.0795
     26 H2          0.5017    5.3478    7.8122 H         1 <0>         0.0924
     27 H3          1.3070    6.2207    9.1380 H         1 <0>         0.0758
     28 H4          3.2070    7.6517    8.7006 H         1 <0>         0.1416
     29 H5          5.1285    8.1399    7.2461 H         1 <0>         0.1408
     30 H6          5.1606    7.3588    4.9339 H         1 <0>         0.1481
     31 H7          4.0893    6.1657    3.0775 H         1 <0>         0.1684
     32 H8          3.0049    4.9569    1.1929 H         1 <0>         0.1214
     33 H9          2.0286    3.9715   -0.5099 H         1 <0>         0.0592
     34 H10         0.2489    3.9457   -0.4930 H         1 <0>         0.1052
     35 H11        -0.9593    1.9048    0.0169 H         1 <0>         0.1371
     36 H12        -0.9257   -0.5570    0.0082 H         1 <0>         0.1381
     37 H13         3.3426   -0.4950   -0.0321 H         1 <0>         0.1363
     38 H14         3.3051    1.9666   -0.0192 H         1 <0>         0.1292
@<TRIPOS>BOND
     1    1    2 1
     2    1   25 1
     3    1   26 1
     4    1   27 1
     5    2    7 ar
     6    2    3 ar
     7    3    4 ar
     8    3   28 1
     9    4    5 ar
    10    4   29 1
    11    5    6 ar
    12    5   30 1
    13    6   11 1
    14    6    7 ar
    15    7    8 1
    16    8   24 1
    17    8    9 1
    18    9   10 1
    19    9   22 2
    20   10   11 2
    21   10   12 1
    22   11   31 1
    23   12   13 2
    24   12   32 1
    25   13   14 1
    26   14   15 1
    27   14   33 1
    28   14   34 1
    29   15   20 ar
    30   15   16 ar
    31   16   17 ar
    32   16   35 1
    33   17   18 ar
    34   17   36 1
    35   18   19 ar
    36   18   21 1
    37   19   20 ar
    38   19   37 1
    39   20   38 1
    40   22   23 1
    41   23   24 2
@<TRIPOS>MOLECULE
ZINC33255468
   46    49     0     0     0
SMALL
USER_CHARGES
4-[4-(5-cyclohexyl-1,2,4-oxadiazol-3-yl)phenyl]morpholine
@<TRIPOS>ATOM
      1 C1          0.9912   -2.8220   -0.0183 C.ar      1 <0>        -0.0442
      2 C2          1.5008   -4.1023   -0.0361 C.ar      1 <0>        -0.1741
      3 C3          2.8766   -4.3038   -0.0507 C.ar      1 <0>         0.1321
      4 C4          3.7409   -3.2144   -0.0523 C.ar      1 <0>        -0.1417
      5 C5          3.2352   -1.9325   -0.0399 C.ar      1 <0>        -0.0550
      6 C6          1.8560   -1.7283   -0.0257 C.ar      1 <0>        -0.0523
      7 C7          1.3096   -0.3495   -0.0123 C.2       1 <0>         0.2181
      8 N1          0.0021   -0.0041    0.0020 N.2       1 <0>        -0.4773
      9 C8         -0.0157    1.3055    0.0092 C.2       1 <0>         0.1920
     10 O1          1.2562    1.7167   -0.0007 O.3       1 <0>         0.0823
     11 N2          2.0021    0.7604   -0.0130 N.2       1 <0>        -0.3796
     12 C9         -1.2402    2.1838    0.0201 C.3       1 <0>         0.0067
     13 C10        -1.2404    3.0739   -1.2244 C.3       1 <0>        -0.1179
     14 C11        -2.4836    3.9657   -1.2134 C.3       1 <0>        -0.1182
     15 C12        -2.4714    4.8422    0.0406 C.3       1 <0>        -0.1256
     16 C13        -2.4712    3.9521    1.2850 C.3       1 <0>        -0.1182
     17 C14        -1.2280    3.0604    1.2740 C.3       1 <0>        -0.1180
     18 N3          3.3903   -5.6001   -0.0633 N.pl3     1 <0>        -0.4878
     19 C15         4.2804   -5.8029   -1.2157 C.3       1 <0>         0.0176
     20 C16         4.8674   -7.2157   -1.1579 C.3       1 <0>         0.0594
     21 O2          3.8013   -8.1683   -1.1230 O.3       1 <0>        -0.3817
     22 C17         2.9152   -8.0004   -0.0130 C.3       1 <0>         0.0598
     23 C18         2.3085   -6.5955   -0.0592 C.3       1 <0>         0.0089
     24 H1         -0.0774   -2.6659   -0.0029 H         1 <0>         0.1365
     25 H2          0.8313   -4.9497   -0.0350 H         1 <0>         0.1358
     26 H3          4.8091   -3.3730   -0.0629 H         1 <0>         0.1337
     27 H4          3.9067   -1.0867   -0.0407 H         1 <0>         0.1334
     28 H5         -2.1335    1.5420    0.0212 H         1 <0>         0.1178
     29 H6         -0.3380    3.7029   -1.2255 H         1 <0>         0.0759
     30 H7         -1.2492    2.4437   -2.1259 H         1 <0>         0.0711
     31 H8         -2.4837    4.6056   -2.1081 H         1 <0>         0.0712
     32 H9         -3.3861    3.3367   -1.2124 H         1 <0>         0.0678
     33 H10        -1.5690    5.4712    0.0395 H         1 <0>         0.0662
     34 H11        -3.3652    5.4834    0.0485 H         1 <0>         0.0673
     35 H12        -2.4625    4.5823    2.1865 H         1 <0>         0.0713
     36 H13        -3.3736    3.3231    1.2861 H         1 <0>         0.0678
     37 H14        -1.2278    2.4205    2.1687 H         1 <0>         0.0713
     38 H15        -0.3256    3.6894    1.2729 H         1 <0>         0.0759
     39 H16         3.7083   -5.6793   -2.1471 H         1 <0>         0.0571
     40 H17         5.0946   -5.0639   -1.1847 H         1 <0>         0.0964
     41 H18         5.4894   -7.3910   -2.0481 H         1 <0>         0.1063
     42 H19         5.4844   -7.3197   -0.2532 H         1 <0>         0.0642
     43 H20         2.1125   -8.7505   -0.0679 H         1 <0>         0.1062
     44 H21         3.4744   -8.1298    0.9254 H         1 <0>         0.0637
     45 H22         1.6707   -6.4402    0.8235 H         1 <0>         0.0973
     46 H23         1.7047   -6.4846   -0.9719 H         1 <0>         0.0600
@<TRIPOS>BOND
     1    1    6 ar
     2    1    2 ar
     3    1   24 1
     4    2    3 ar
     5    2   25 1
     6    3    4 ar
     7    3   18 1
     8    4    5 ar
     9    4   26 1
    10    5    6 ar
    11    5   27 1
    12    6    7 1
    13    7   11 2
    14    7    8 1
    15    8    9 2
    16    9   10 1
    17    9   12 1
    18   10   11 1
    19   12   17 1
    20   12   13 1
    21   12   28 1
    22   13   14 1
    23   13   29 1
    24   13   30 1
    25   14   15 1
    26   14   31 1
    27   14   32 1
    28   15   16 1
    29   15   33 1
    30   15   34 1
    31   16   17 1
    32   16   35 1
    33   16   36 1
    34   17   37 1
    35   17   38 1
    36   18   23 1
    37   18   19 1
    38   19   20 1
    39   19   39 1
    40   19   40 1
    41   20   21 1
    42   20   41 1
    43   20   42 1
    44   21   22 1
    45   22   23 1
    46   22   43 1
    47   22   44 1
    48   23   45 1
    49   23   46 1
@<TRIPOS>MOLECULE
ZINC47195619
   35    37     0     0     0
SMALL
USER_CHARGES

@<TRIPOS>ATOM
      1 C1          2.5067   -0.9755    1.4128 C.3       1 <0>        -0.1215
      2 C2          1.2111   -1.1913    0.6739 C.ar      1 <0>        -0.0784
      3 C3          1.2048   -1.8789   -0.5244 C.ar      1 <0>        -0.1090
      4 C4          0.0167   -2.0772   -1.2028 C.ar      1 <0>        -0.1063
      5 C5         -1.1683   -1.5881   -0.6842 C.ar      1 <0>        -0.1122
      6 C6         -1.1675   -0.8996    0.5132 C.ar      1 <0>        -0.1119
      7 C7          0.0230   -0.7047    1.1992 C.ar      1 <0>         0.0787
      8 O1          0.0256   -0.0333    2.3808 O.3       1 <0>        -0.2886
      9 C8         -0.0577   -0.7532    3.5184 C.2       1 <0>         0.5609
     10 O2         -0.0404   -1.9683    3.4716 O.2       1 <0>        -0.4665
     11 C9         -0.1690   -0.0709    4.8112 C.2       1 <0>        -0.2900
     12 C10        -0.2602   -0.6042    6.0928 C.2       1 <0>         0.1718
     13 N1         -0.3500    0.2542    7.0726 N.2       1 <0>        -0.4838
     14 C11        -0.3536    1.5577    6.8525 C.2       1 <0>         0.0947
     15 S1         -0.2174    1.6760    5.1792 S.3       1 <0>         0.3067
     16 C12        -0.4480    2.6529    7.8428 C.ar      1 <0>         0.3851
     17 N2         -0.5380    2.3542    9.1325 N.ar      1 <0>        -0.4724
     18 C13        -0.6233    3.3085   10.0424 C.ar      1 <0>         0.1533
     19 C14        -0.6179    4.6348    9.6349 C.ar      1 <0>        -0.2100
     20 C15        -0.5226    4.9119    8.2787 C.ar      1 <0>         0.1576
     21 N3         -0.4352    3.9108    7.4207 N.ar      1 <0>        -0.5021
     22 C16        -0.2561   -2.0913    6.3370 C.3       1 <0>        -0.0934
     23 H1          2.6792   -1.8084    2.0945 H         1 <0>         0.0753
     24 H2          3.3271   -0.9154    0.6977 H         1 <0>         0.0757
     25 H3          2.4507   -0.0468    1.9806 H         1 <0>         0.0693
     26 H4          2.1290   -2.2616   -0.9317 H         1 <0>         0.1323
     27 H5          0.0140   -2.6146   -2.1396 H         1 <0>         0.1306
     28 H6         -2.0952   -1.7443   -1.2160 H         1 <0>         0.1328
     29 H7         -2.0931   -0.5176    0.9176 H         1 <0>         0.1313
     30 H8         -0.6967    3.0591   11.0906 H         1 <0>         0.1802
     31 H9         -0.6868    5.4343   10.3578 H         1 <0>         0.1592
     32 H10        -0.5161    5.9337    7.9288 H         1 <0>         0.1823
     33 H11         0.7694   -2.4339    6.4754 H         1 <0>         0.0881
     34 H12        -0.8375   -2.3142    7.2316 H         1 <0>         0.0840
     35 H13        -0.6971   -2.6013    5.4806 H         1 <0>         0.0961
@<TRIPOS>BOND
     1    1    2 1
     2    1   23 1
     3    1   24 1
     4    1   25 1
     5    2    7 ar
     6    2    3 ar
     7    3    4 ar
     8    3   26 1
     9    4    5 ar
    10    4   27 1
    11    5    6 ar
    12    5   28 1
    13    6    7 ar
    14    6   29 1
    15    7    8 1
    16    8    9 1
    17    9   10 2
    18    9   11 1
    19   11   15 1
    20   11   12 2
    21   12   13 1
    22   12   22 1
    23   13   14 2
    24   14   15 1
    25   14   16 1
    26   16   21 ar
    27   16   17 ar
    28   17   18 ar
    29   18   19 ar
    30   18   30 1
    31   19   20 ar
    32   19   31 1
    33   20   21 ar
    34   20   32 1
    35   22   33 1
    36   22   34 1
    37   22   35 1
@<TRIPOS>MOLECULE
ZINC65457673
   40    42     0     0     0
SMALL
USER_CHARGES

@<TRIPOS>ATOM
      1 C1         -1.5755    0.4098    0.9100 C.3       1 <0>        -0.1087
      2 C2         -0.4288   -0.3290    0.2693 C.ar      1 <0>         0.1530
      3 C3         -0.6694   -1.1591   -0.8068 C.ar      1 <0>        -0.1565
      4 C4          0.3985   -1.8367   -1.3913 C.ar      1 <0>         0.1869
      5 C5          1.6726   -1.6452   -0.8597 C.ar      1 <0>        -0.1832
      6 C6          1.8292   -0.7981    0.2180 C.ar      1 <0>         0.1300
      7 N1          0.7930   -0.1701    0.7408 N.ar      1 <0>        -0.4756
      8 N2          0.1972   -2.6871   -2.4828 N.pl3     1 <0>        -0.3334
      9 C7          0.7384   -3.9226   -2.6681 C.2       1 <0>         0.3279
     10 N3          0.2952   -4.3840   -3.8201 N.2       1 <0>        -0.5005
     11 C8         -0.5121   -3.4896   -4.3834 C.2       1 <0>         0.2446
     12 N4         -0.6089   -2.4419   -3.6065 N.2       1 <0>        -0.2927
     13 C9         -1.2114   -3.6597   -5.7074 C.3       1 <0>        -0.0027
     14 C10        -0.1712   -3.8543   -6.8123 C.3       1 <0>        -0.1427
     15 C11        -2.1267   -4.8843   -5.6472 C.3       1 <0>        -0.1427
     16 C12         1.6584   -4.6206   -1.7435 C.ar      1 <0>        -0.0057
     17 C13         1.5590   -4.4109   -0.3700 C.ar      1 <0>        -0.0585
     18 C14         2.4287   -5.0721    0.4954 C.ar      1 <0>         0.0131
     19 C15         3.3945   -5.9409   -0.0186 C.ar      1 <0>        -0.0847
     20 C16         3.4883   -6.1445   -1.3829 C.ar      1 <0>         0.1105
     21 C17         2.6237   -5.4949   -2.2455 C.ar      1 <0>        -0.0723
     22 F1          4.4243   -6.9853   -1.8750 F         1 <0>        -0.1206
     23 C18         2.3328   -4.8610    1.9086 C.1       1 <0>         0.2438
     24 N5          2.2567   -4.6936    3.0296 N.1       1 <0>        -0.3832
     25 H1         -1.7054    1.3745    0.4195 H         1 <0>         0.0861
     26 H2         -2.4886   -0.1764    0.8064 H         1 <0>         0.0793
     27 H3         -1.3618    0.5656    1.9674 H         1 <0>         0.0847
     28 H4         -1.6715   -1.2819   -1.1903 H         1 <0>         0.1471
     29 H5          2.5254   -2.1532   -1.2852 H         1 <0>         0.1451
     30 H6          2.8127   -0.6440    0.6366 H         1 <0>         0.1708
     31 H7         -1.8064   -2.7716   -5.9208 H         1 <0>         0.0961
     32 H8          0.4237   -4.7424   -6.5990 H         1 <0>         0.0681
     33 H9         -0.6770   -3.9773   -7.7700 H         1 <0>         0.0702
     34 H10         0.4808   -2.9819   -6.8552 H         1 <0>         0.0554
     35 H11        -1.5317   -5.7724   -5.4338 H         1 <0>         0.0682
     36 H12        -2.8678   -4.7457   -4.8600 H         1 <0>         0.0552
     37 H13        -2.6325   -5.0073   -6.6048 H         1 <0>         0.0703
     38 H14         0.8110   -3.7380    0.0228 H         1 <0>         0.1399
     39 H15         4.0691   -6.4540    0.6508 H         1 <0>         0.1571
     40 H16         2.6984   -5.6614   -3.3100 H         1 <0>         0.1602
@<TRIPOS>BOND
     1    1    2 1
     2    1   25 1
     3    1   26 1
     4    1   27 1
     5    2    7 ar
     6    2    3 ar
     7    3    4 ar
     8    3   28 1
     9    4    5 ar
    10    4    8 1
    11    5    6 ar
    12    5   29 1
    13    6    7 ar
    14    6   30 1
    15    8   12 1
    16    8    9 1
    17    9   10 2
    18    9   16 1
    19   10   11 1
    20   11   12 2
    21   11   13 1
    22   13   14 1
    23   13   15 1
    24   13   31 1
    25   14   32 1
    26   14   33 1
    27   14   34 1
    28   15   35 1
    29   15   36 1
    30   15   37 1
    31   16   21 ar
    32   16   17 ar
    33   17   18 ar
    34   17   38 1
    35   18   19 ar
    36   18   23 1
    37   19   20 ar
    38   19   39 1
    39   20   21 ar
    40   20   22 1
    41   21   40 1
    42   23   24 3
@<TRIPOS>MOLECULE
ZINC07007664
   42    45     0     0     0
SMALL
USER_CHARGES
1-(2,5-dioxabicyclo[4.4.0]deca-7,9,11-trien-8-yl)-N-(3-methylthiazol-2-ylidene)-5-oxo-pyrrolidine-3-carboxamide
@<TRIPOS>ATOM
      1 C1          2.7839   -0.8094    4.2400 C.3       1 <0>         0.0652
      2 N1          1.4132   -1.2109    4.5660 N.pl3     1 <0>        -0.4895
      3 C2          1.1751   -2.1165    5.5502 C.2       1 <0>         0.0498
      4 C3         -0.0902   -2.4565    5.8179 C.2       1 <0>        -0.2468
      5 S1         -0.9953   -1.4606    4.6458 S.3       1 <0>         0.1367
      6 C4          0.3566   -0.6815    3.8870 C.2       1 <0>         0.3957
      7 N2          0.3605    0.2123    2.8956 N.2       1 <0>        -0.6060
      8 C5         -0.7846    0.6094    2.3559 C.2       1 <0>         0.5020
      9 O1         -1.8381    0.1588    2.7645 O.2       1 <0>        -0.5302
     10 C6         -0.7801    1.6184    1.2366 C.3       1 <0>        -0.0922
     11 H1         -0.3595    2.5670    1.5703 H         1 <0>         0.1256
     12 C7         -0.0162    1.0767    0.0062 C.3       1 <0>        -0.1305
     13 C8         -0.7989    1.5975   -1.1791 C.2       1 <0>         0.5196
     14 O2         -0.3875    1.6387   -2.3193 O.2       1 <0>        -0.5040
     15 N3         -2.0163    2.0088   -0.7845 N.am      1 <0>        -0.5558
     16 C9         -2.2029    1.8148    0.6582 C.3       1 <0>         0.1065
     17 C10        -2.9829    2.5523   -1.6406 C.ar      1 <0>         0.1717
     18 C11        -2.6701    2.8063   -2.9693 C.ar      1 <0>        -0.1490
     19 C12        -3.6227    3.3427   -3.8135 C.ar      1 <0>        -0.0828
     20 C13        -4.8937    3.6294   -3.3375 C.ar      1 <0>         0.0262
     21 C14        -5.2102    3.3750   -2.0082 C.ar      1 <0>         0.0788
     22 C15        -4.2553    2.8317   -1.1625 C.ar      1 <0>        -0.1526
     23 O3         -6.4532    3.6457   -1.5240 O.3       1 <0>        -0.3057
     24 C16        -7.2685    4.5291   -2.3016 C.3       1 <0>         0.0209
     25 C17        -7.1870    4.0900   -3.7699 C.3       1 <0>         0.0200
     26 O4         -5.8184    4.1621   -4.1839 O.3       1 <0>        -0.3067
     27 H2          3.0641    0.0521    4.8462 H         1 <0>         0.0800
     28 H3          3.4636   -1.6359    4.4471 H         1 <0>         0.0882
     29 H4          2.8438   -0.5456    3.1841 H         1 <0>         0.1000
     30 H5          1.9918   -2.5531    6.1059 H         1 <0>         0.1868
     31 H6         -0.4668   -3.1506    6.5547 H         1 <0>         0.2059
     32 H7         -0.0104   -0.0133    0.0103 H         1 <0>         0.1104
     33 H8          1.0031    1.4626   -0.0104 H         1 <0>         0.1198
     34 H9         -2.6708    2.6947    1.0997 H         1 <0>         0.0950
     35 H10        -2.8113    0.9298    0.8443 H         1 <0>         0.0996
     36 H11        -1.6815    2.5841   -3.3430 H         1 <0>         0.1644
     37 H12        -3.3773    3.5397   -4.8466 H         1 <0>         0.1407
     38 H13        -4.5005    2.6299   -0.1302 H         1 <0>         0.1393
     39 H14        -6.9017    5.5508   -2.2025 H         1 <0>         0.0789
     40 H15        -8.3015    4.4739   -1.9582 H         1 <0>         0.1235
     41 H16        -7.7930    4.7540   -4.3863 H         1 <0>         0.1227
     42 H17        -7.5474    3.0661   -3.8686 H         1 <0>         0.0776
@<TRIPOS>BOND
     1    1    2 1
     2    1   27 1
     3    1   28 1
     4    1   29 1
     5    2    6 1
     6    2    3 1
     7    3    4 2
     8    3   30 1
     9    4    5 1
    10    4   31 1
    11    5    6 1
    12    6    7 2
    13    7    8 1
    14    8    9 2
    15    8   10 1
    16   10   11 1
    17   10   16 1
    18   10   12 1
    19   12   13 1
    20   12   32 1
    21   12   33 1
    22   13   14 2
    23   13   15 am
    24   15   16 1
    25   15   17 1
    26   16   34 1
    27   16   35 1
    28   17   22 ar
    29   17   18 ar
    30   18   19 ar
    31   18   36 1
    32   19   20 ar
    33   19   37 1
    34   20   26 1
    35   20   21 ar
    36   21   22 ar
    37   21   23 1
    38   22   38 1
    39   23   24 1
    40   24   25 1
    41   24   39 1
    42   24   40 1
    43   25   26 1
    44   25   41 1
    45   25   42 1
@<TRIPOS>MOLECULE
ZINC31080785
   45    47     0     0     0
SMALL
USER_CHARGES
2-[4-[(E)-3-(5-chloro-1,3-dimethyl-pyrazol-4-yl)prop-2-enoyl]piperazin-1-yl]pyridine-4-carbonitrile
@<TRIPOS>ATOM
      1 C1         -3.7330   -8.0026   -4.3345 C.3       1 <0>        -0.0814
      2 C2         -3.8559   -8.2278   -2.8495 C.2       1 <0>         0.1105
      3 C3         -2.8740   -7.9206   -1.8784 C.2       1 <0>        -0.2104
      4 C4         -3.3897   -8.2909   -0.6472 C.2       1 <0>         0.1407
      5 N1         -4.6213   -8.7863   -0.8619 N.pl3     1 <0>        -0.3527
      6 N2         -4.8859   -8.7399   -2.2350 N.2       1 <0>        -0.2740
      7 C5         -5.5304   -9.2954    0.1680 C.3       1 <0>         0.0865
      8 Cl1        -2.5952   -8.1393    0.8888 Cl        1 <0>         0.0108
      9 C6         -1.5545   -7.3269   -2.1289 C.2       1 <0>         0.0384
     10 C7         -1.1483   -6.2558   -1.4121 C.2       1 <0>        -0.2296
     11 C8          0.1253   -5.6828   -1.6540 C.2       1 <0>         0.5600
     12 O1          0.8158   -6.0973   -2.5671 O.2       1 <0>        -0.5459
     13 N3          0.5719   -4.6792   -0.8732 N.am      1 <0>        -0.6161
     14 C9         -0.2899   -4.0861    0.1605 C.3       1 <0>         0.1043
     15 C10        -0.2861   -2.5640   -0.0170 C.3       1 <0>         0.0513
     16 N4          1.1003   -2.0784   -0.0235 N.pl3     1 <0>        -0.4740
     17 C11         1.8506   -2.6238   -1.1626 C.3       1 <0>         0.0421
     18 C12         1.9344   -4.1483   -1.0320 C.3       1 <0>         0.1140
     19 C13         1.1415   -0.6887   -0.0191 C.ar      1 <0>         0.3198
     20 C14         2.3697   -0.0373   -0.0246 C.ar      1 <0>        -0.1414
     21 C15         2.3935    1.3587   -0.0201 C.ar      1 <0>         0.0477
     22 C16         1.1703    2.0423   -0.0102 C.ar      1 <0>        -0.1565
     23 C17        -0.0035    1.3192   -0.0058 C.ar      1 <0>         0.1374
     24 N5          0.0109   -0.0003   -0.0103 N.ar      1 <0>        -0.5032
     25 C18         3.6348    2.0727   -0.0259 C.1       1 <0>         0.2472
     26 N6          4.6195    2.6392   -0.0304 N.1       1 <0>        -0.3888
     27 H1         -2.7524   -7.5571   -4.5579 H         1 <0>         0.0850
     28 H2         -4.5297   -7.3221   -4.6693 H         1 <0>         0.0839
     29 H3         -3.8272   -8.9642   -4.8602 H         1 <0>         0.0846
     30 H4         -6.4650   -9.6342   -0.3029 H         1 <0>         0.1065
     31 H5         -5.7523   -8.4951    0.8893 H         1 <0>         0.0884
     32 H6         -5.0564  -10.1392    0.6909 H         1 <0>         0.0880
     33 H7         -0.8967   -7.7541   -2.9001 H         1 <0>         0.1453
     34 H8         -1.8061   -5.8286   -0.6409 H         1 <0>         0.1295
     35 H9         -1.3134   -4.4740    0.0514 H         1 <0>         0.0984
     36 H10         0.0976   -4.3487    1.1559 H         1 <0>         0.0804
     37 H11        -0.7711   -2.3048   -0.9696 H         1 <0>         0.0597
     38 H12        -0.8357   -2.0966    0.8134 H         1 <0>         0.1046
     39 H13         1.3363   -2.3626   -2.0992 H         1 <0>         0.0576
     40 H14         2.8652   -2.1990   -1.1706 H         1 <0>         0.0991
     41 H15         2.5374   -4.4170   -0.1521 H         1 <0>         0.0806
     42 H16         2.3923   -4.5777   -1.9353 H         1 <0>         0.1068
     43 H17         3.2903   -0.6019   -0.0325 H         1 <0>         0.1481
     44 H18         1.1474    3.1221   -0.0065 H         1 <0>         0.1470
     45 H19        -0.9492    1.8407   -0.0032 H         1 <0>         0.1699
@<TRIPOS>BOND
     1    1    2 1
     2    1   27 1
     3    1   28 1
     4    1   29 1
     5    2    6 2
     6    2    3 1
     7    3    4 2
     8    3    9 1
     9    4    5 1
    10    4    8 1
    11    5    6 1
    12    5    7 1
    13    7   30 1
    14    7   31 1
    15    7   32 1
    16    9   10 2
    17    9   33 1
    18   10   11 1
    19   10   34 1
    20   11   12 2
    21   11   13 am
    22   13   18 1
    23   13   14 1
    24   14   15 1
    25   14   35 1
    26   14   36 1
    27   15   16 1
    28   15   37 1
    29   15   38 1
    30   16   17 1
    31   16   19 1
    32   17   18 1
    33   17   39 1
    34   17   40 1
    35   18   41 1
    36   18   42 1
    37   19   24 ar
    38   19   20 ar
    39   20   21 ar
    40   20   43 1
    41   21   22 ar
    42   21   25 1
    43   22   23 ar
    44   22   44 1
    45   23   24 ar
    46   23   45 1
    47   25   26 3
@<TRIPOS>MOLECULE
ZINC41476865
   44    47     0     0     0
SMALL
USER_CHARGES

@<TRIPOS>ATOM
      1 C1          0.0602    1.4927    0.0049 C.3       1 <0>        -0.0901
      2 C2          0.0660   -0.0143   -0.0072 C.2       1 <0>         0.1415
      3 C3         -0.0626   -0.8303   -1.1522 C.ar      1 <0>        -0.2686
      4 C4         -0.0046   -2.1681   -0.7142 C.ar      1 <0>         0.3493
      5 N1         -0.1040   -3.1436   -1.6150 N.ar      1 <0>        -0.5349
      6 C5         -0.2538   -2.8656   -2.8917 C.ar      1 <0>         0.3607
      7 N2         -0.3135   -1.6275   -3.3493 N.ar      1 <0>        -0.5521
      8 C6         -0.2242   -0.5858   -2.5294 C.ar      1 <0>         0.5178
      9 N3         -0.2880    0.7051   -3.0161 N.pl3     1 <0>        -0.6513
     10 C7         -1.5716    1.4099   -3.0572 C.3       1 <0>         0.1011
     11 C8          0.9281    1.3696   -3.4913 C.3       1 <0>         0.1809
     12 H1          1.7738    0.6888   -3.3944 H         1 <0>         0.1012
     13 C9          0.7530    1.7592   -4.9685 C.3       1 <0>        -0.1437
     14 C10         1.9084    2.7262   -5.3546 C.3       1 <0>        -0.5725
     15 S1          1.9928    3.7723   -3.8402 S.o2      1 <0>         2.3705
     16 O1          3.3546    3.9449   -3.4728 O.2       1 <0>        -0.9336
     17 O2          1.1671    4.9146   -4.0208 O.2       1 <0>        -0.9297
     18 C11         1.1877    2.6360   -2.6401 C.3       1 <0>        -0.6106
     19 N4          0.1526   -2.1266    0.6418 N.pl3     1 <0>        -0.3259
     20 N5          0.1963   -0.7834    1.0365 N.2       1 <0>        -0.2260
     21 C12         0.2565   -3.2364    1.4913 C.ar      1 <0>         0.1222
     22 C13         0.2073   -4.5208    0.9670 C.ar      1 <0>        -0.1093
     23 C14         0.3099   -5.6129    1.8066 C.ar      1 <0>        -0.1045
     24 C15         0.4609   -5.4289    3.1689 C.ar      1 <0>        -0.0966
     25 C16         0.5100   -4.1517    3.6961 C.ar      1 <0>        -0.1357
     26 C17         0.4146   -3.0535    2.8606 C.ar      1 <0>         0.0991
     27 F1          0.4690   -1.8053    3.3748 F         1 <0>        -0.1175
     28 H2          1.0859    1.8602   -0.0272 H         1 <0>         0.0896
     29 H3         -0.4851    1.8609   -0.8640 H         1 <0>         0.0947
     30 H4         -0.4243    1.8468    0.9148 H         1 <0>         0.0862
     31 H5         -0.3307   -3.6821   -3.5944 H         1 <0>         0.2114
     32 H6         -1.6781    2.0232   -2.1624 H         1 <0>         0.0536
     33 H7         -1.6082    2.0469   -3.9409 H         1 <0>         0.0754
     34 H8         -2.3836    0.6839   -3.0988 H         1 <0>         0.0683
     35 H9          0.7962    0.8663   -5.5923 H         1 <0>         0.1084
     36 H10        -0.2063    2.2581   -5.1064 H         1 <0>         0.0957
     37 H11         2.8407    2.1837   -5.5114 H         1 <0>         0.1409
     38 H12         1.6487    3.3208   -6.2304 H         1 <0>         0.1450
     39 H13         0.2499    3.0572   -2.2780 H         1 <0>         0.1502
     40 H14         1.8584    2.4131   -1.8104 H         1 <0>         0.1474
     41 H15         0.0887   -4.6662   -0.0966 H         1 <0>         0.1626
     42 H16         0.2716   -6.6121    1.3986 H         1 <0>         0.1419
     43 H17         0.5404   -6.2850    3.8226 H         1 <0>         0.1408
     44 H18         0.6273   -4.0114    4.7605 H         1 <0>         0.1463
@<TRIPOS>BOND
     1    1    2 1
     2    1   28 1
     3    1   29 1
     4    1   30 1
     5    2   20 2
     6    2    3 1
     7    3    8 ar
     8    3    4 ar
     9    4    5 ar
    10    4   19 1
    11    5    6 ar
    12    6    7 ar
    13    6   31 1
    14    7    8 ar
    15    8    9 1
    16    9   10 1
    17    9   11 1
    18   10   32 1
    19   10   33 1
    20   10   34 1
    21   11   12 1
    22   11   18 1
    23   11   13 1
    24   13   14 1
    25   13   35 1
    26   13   36 1
    27   14   15 1
    28   14   37 1
    29   14   38 1
    30   15   16 2
    31   15   17 2
    32   15   18 1
    33   18   39 1
    34   18   40 1
    35   19   20 1
    36   19   21 1
    37   21   26 ar
    38   21   22 ar
    39   22   23 ar
    40   22   41 1
    41   23   24 ar
    42   23   42 1
    43   24   25 ar
    44   24   43 1
    45   25   26 ar
    46   25   44 1
    47   26   27 1
@<TRIPOS>MOLECULE
ZINC38875663
   37    39     0     0     0
SMALL
USER_CHARGES

@<TRIPOS>ATOM
      1 C1         -0.7106    1.8305   -0.5368 C.3       1 <0>        -0.6500
      2 S1         -0.6881    0.0178   -0.5992 S.o2      1 <0>         2.5062
      3 O1         -0.0437   -0.5038    0.5549 O.2       1 <0>        -0.9312
      4 O2         -1.9585   -0.4738   -1.0039 O.2       1 <0>        -0.9318
      5 C2          0.3924   -0.3760   -1.9341 C.ar      1 <0>        -0.6731
      6 C3         -0.1049   -0.5121   -3.2196 C.ar      1 <0>         0.0216
      7 C4          0.7226   -0.8186   -4.2747 C.ar      1 <0>        -0.1406
      8 C5          2.0978   -1.0023   -4.0733 C.ar      1 <0>         0.1922
      9 C6          2.5745   -0.8587   -2.7623 C.ar      1 <0>        -0.2041
     10 C7          1.7471   -0.5467   -1.7095 C.ar      1 <0>         0.0720
     11 S2          4.3141   -1.1611   -2.9304 S.3       1 <0>         0.2316
     12 C8          4.3693   -1.4461   -4.5859 C.2       1 <0>         0.3863
     13 N1          5.4329   -1.7383   -5.3278 N.2       1 <0>        -0.5508
     14 C9          5.2777   -2.1036   -6.6032 C.2       1 <0>         0.5666
     15 O3          5.4239   -1.2848   -7.4936 O.2       1 <0>        -0.4542
     16 C10         4.9273   -3.5063   -6.9356 C.ar      1 <0>        -0.0089
     17 C11         4.7704   -3.8911   -8.2664 C.ar      1 <0>         0.1078
     18 N2          4.4584   -5.1409   -8.5574 N.ar      1 <0>        -0.4359
     19 C12         4.2951   -6.0253   -7.5891 C.ar      1 <0>         0.0827
     20 C13         4.4500   -5.6457   -6.2646 C.ar      1 <0>         0.0506
     21 N3          4.7673   -4.4013   -5.9656 N.ar      1 <0>        -0.3949
     22 N4          3.0811   -1.3110   -4.9939 N.pl3     1 <0>        -0.5472
     23 C14         2.7349   -1.4916   -6.4059 C.3       1 <0>         0.1961
     24 C15         2.9821   -0.2375   -7.1360 C.1       1 <0>        -0.2438
     25 C16         3.1793    0.7627   -7.7182 C.1       1 <0>        -0.1131
     26 H1          0.2995    2.2005   -0.3605 H         1 <0>         0.1336
     27 H2         -1.0808    2.2222   -1.4842 H         1 <0>         0.1328
     28 H3         -1.3638    2.1582    0.2720 H         1 <0>         0.1360
     29 H4         -1.1615   -0.3754   -3.3967 H         1 <0>         0.1575
     30 H5          0.3091   -0.9190   -5.2673 H         1 <0>         0.1412
     31 H6          2.1509   -0.4398   -0.7136 H         1 <0>         0.1625
     32 H7          4.9034   -3.1683   -9.0578 H         1 <0>         0.1829
     33 H8          4.0400   -7.0467   -7.8302 H         1 <0>         0.1822
     34 H9          4.3152   -6.3718   -5.4765 H         1 <0>         0.1827
     35 H10         3.3474   -2.2865   -6.8314 H         1 <0>         0.1078
     36 H11         1.6817   -1.7596   -6.4904 H         1 <0>         0.1208
     37 H12         3.3556    1.6572   -8.2390 H         1 <0>         0.2258
@<TRIPOS>BOND
     1    1    2 1
     2    1   26 1
     3    1   27 1
     4    1   28 1
     5    2    3 2
     6    2    4 2
     7    2    5 1
     8    5   10 ar
     9    5    6 ar
    10    6    7 ar
    11    6   29 1
    12    7    8 ar
    13    7   30 1
    14    8   22 1
    15    8    9 ar
    16    9   10 ar
    17    9   11 1
    18   10   31 1
    19   11   12 1
    20   12   13 2
    21   12   22 1
    22   13   14 1
    23   14   15 2
    24   14   16 1
    25   16   21 ar
    26   16   17 ar
    27   17   18 ar
    28   17   32 1
    29   18   19 ar
    30   19   20 ar
    31   19   33 1
    32   20   21 ar
    33   20   34 1
    34   22   23 1
    35   23   24 1
    36   23   35 1
    37   23   36 1
    38   24   25 3
    39   25   37 1
@<TRIPOS>MOLECULE
ZINC65895969
   36    39     0     0     0
SMALL
USER_CHARGES

@<TRIPOS>ATOM
      1 C1         -0.1192    1.4442    0.2258 C.ar      1 <0>        -0.1051
      2 C2          0.9905    2.1996    0.5499 C.ar      1 <0>        -0.0659
      3 C3          2.0727    1.6078    1.1769 C.ar      1 <0>        -0.0967
      4 C4          2.0464    0.2581    1.4804 C.ar      1 <0>        -0.0619
      5 C5          0.9391   -0.5018    1.1585 C.ar      1 <0>        -0.1293
      6 C6         -0.1484    0.0897    0.5297 C.ar      1 <0>         0.1628
      7 N1         -1.2737   -0.6792    0.2023 N.pl3     1 <0>        -0.3076
      8 C7         -1.4266   -1.9932    0.4471 C.2       1 <0>         0.1368
      9 C8         -2.6698   -2.3596   -0.0295 C.2       1 <0>        -0.2780
     10 C9         -3.2652   -1.2004   -0.5769 C.2       1 <0>         0.0841
     11 N2         -2.4305   -0.2085   -0.4289 N.2       1 <0>        -0.2775
     12 C10        -3.2643   -3.7071    0.0223 C.2       1 <0>         0.6054
     13 O1         -2.5499   -4.6894   -0.0360 O.2       1 <0>        -0.4715
     14 N3         -4.5997   -3.8506    0.1343 N.am      1 <0>        -0.5299
     15 C11        -5.5111   -2.6898    0.1414 C.3       1 <0>         0.0847
     16 C12        -6.5610   -2.8992    1.2386 C.3       1 <0>        -0.1545
     17 C13        -7.3970   -4.1462    0.9252 C.3       1 <0>         0.1263
     18 N4         -6.4944   -5.2538    0.6132 N.pl3     1 <0>        -0.3981
     19 C14        -5.1987   -5.1031    0.2440 C.2       1 <0>         0.4995
     20 N5         -4.6938   -6.2889    0.0400 N.2       1 <0>        -0.5188
     21 C15        -5.6305   -7.2171    0.2595 C.2       1 <0>         0.2126
     22 N6         -6.7461   -6.6262    0.6203 N.2       1 <0>        -0.3082
     23 Br1         3.5906    2.6453    1.6191 Br        1 <0>        -0.0348
     24 H1         -0.9655    1.9075   -0.2596 H         1 <0>         0.1504
     25 H2          1.0139    3.2532    0.3133 H         1 <0>         0.1463
     26 H3          2.8927   -0.2015    1.9692 H         1 <0>         0.1476
     27 H4          0.9191   -1.5553    1.3954 H         1 <0>         0.1432
     28 H5         -0.7091   -2.6420    0.9275 H         1 <0>         0.1961
     29 H6         -4.2421   -1.1445   -1.0340 H         1 <0>         0.2047
     30 H7         -4.9448   -1.7811    0.3455 H         1 <0>         0.1193
     31 H8         -6.0051   -2.6065   -0.8266 H         1 <0>         0.0910
     32 H9         -6.0612   -3.0297    2.1984 H         1 <0>         0.0868
     33 H10        -7.2140   -2.0277    1.2865 H         1 <0>         0.1187
     34 H11        -8.0063   -4.4045    1.7913 H         1 <0>         0.1045
     35 H12        -8.0416   -3.9481    0.0689 H         1 <0>         0.0928
     36 H13        -5.4894   -8.2836    0.1638 H         1 <0>         0.2241
@<TRIPOS>BOND
     1    1    6 ar
     2    1    2 ar
     3    1   24 1
     4    2    3 ar
     5    2   25 1
     6    3    4 ar
     7    3   23 1
     8    4    5 ar
     9    4   26 1
    10    5    6 ar
    11    5   27 1
    12    6    7 1
    13    7   11 1
    14    7    8 1
    15    8    9 2
    16    8   28 1
    17    9   10 1
    18    9   12 1
    19   10   11 2
    20   10   29 1
    21   12   13 2
    22   12   14 am
    23   14   19 1
    24   14   15 1
    25   15   16 1
    26   15   30 1
    27   15   31 1
    28   16   17 1
    29   16   32 1
    30   16   33 1
    31   17   18 1
    32   17   34 1
    33   17   35 1
    34   18   22 1
    35   18   19 1
    36   19   20 2
    37   20   21 1
    38   21   22 2
    39   21   36 1
@<TRIPOS>MOLECULE
ZINC08510738
   36    36     0     0     0
SMALL
USER_CHARGES
2-[(2,3-dichlorophenyl)sulfonyl-ethyl-amino]-N-ethyl-acetamide
@<TRIPOS>ATOM
      1 C1          2.9848    5.5373   -0.3099 C.3       1 <0>        -0.1666
      2 C2          3.0193    4.0101   -0.2248 C.3       1 <0>         0.1155
      3 N1          1.6507    3.4883   -0.2560 N.am      1 <0>        -0.7305
      4 C3          1.4346    2.1595   -0.1926 C.2       1 <0>         0.4841
      5 O1          2.3730    1.3957   -0.1099 O.2       1 <0>        -0.5177
      6 C4          0.0268    1.6227   -0.2247 C.3       1 <0>         0.0942
      7 N2          0.0597    0.1603   -0.1432 N.pl3     1 <0>        -0.9693
      8 C5          0.1747   -0.4982    1.1604 C.3       1 <0>         0.1106
      9 C6         -1.2007   -0.5499    1.8287 C.3       1 <0>        -0.1723
     10 S1         -0.0329   -0.7482   -1.5246 S.o2      1 <0>         2.6883
     11 O2         -0.3402   -2.0748   -1.1183 O.2       1 <0>        -0.9311
     12 O3         -0.8478   -0.0220   -2.4344 O.2       1 <0>        -0.9497
     13 C7          1.5832   -0.7977   -2.2249 C.ar      1 <0>        -0.6585
     14 C8          1.8359   -0.1611   -3.4259 C.ar      1 <0>        -0.0092
     15 C9          3.1032   -0.1998   -3.9762 C.ar      1 <0>        -0.1233
     16 C10         4.1196   -0.8751   -3.3264 C.ar      1 <0>        -0.0442
     17 C11         3.8685   -1.5125   -2.1249 C.ar      1 <0>        -0.0492
     18 C12         2.6003   -1.4685   -1.5704 C.ar      1 <0>         0.0795
     19 Cl1         2.2854   -2.2615   -0.0586 Cl        1 <0>        -0.0183
     20 Cl2         5.1444   -2.3606   -1.3085 Cl        1 <0>        -0.0381
     21 H1          2.5022    5.8386   -1.2396 H         1 <0>         0.0627
     22 H2          2.4247    5.9358    0.5360 H         1 <0>         0.0627
     23 H3          4.0031    5.9256   -0.2867 H         1 <0>         0.0746
     24 H4          3.5019    3.7088    0.7049 H         1 <0>         0.0677
     25 H5          3.5794    3.6116   -1.0707 H         1 <0>         0.0664
     26 H6          0.9001    4.0991   -0.3221 H         1 <0>         0.4022
     27 H7         -0.4559    1.9240   -1.1544 H         1 <0>         0.1227
     28 H8         -0.5334    2.0212    0.6212 H         1 <0>         0.1205
     29 H9          0.5503   -1.5122    1.0233 H         1 <0>         0.0938
     30 H10         0.8643    0.0625    1.7912 H         1 <0>         0.0833
     31 H11        -1.5763    0.4641    1.9658 H         1 <0>         0.0603
     32 H12        -1.8904   -1.1106    1.1979 H         1 <0>         0.0625
     33 H13        -1.1152   -1.0399    2.7986 H         1 <0>         0.0725
     34 H14         1.0425    0.3664   -3.9345 H         1 <0>         0.1551
     35 H15         3.2995    0.2975   -4.9146 H         1 <0>         0.1486
     36 H16         5.1095   -0.9053   -3.7572 H         1 <0>         0.1502
@<TRIPOS>BOND
     1    1    2 1
     2    1   21 1
     3    1   22 1
     4    1   23 1
     5    2    3 1
     6    2   24 1
     7    2   25 1
     8    3    4 am
     9    3   26 1
    10    4    5 2
    11    4    6 1
    12    6    7 1
    13    6   27 1
    14    6   28 1
    15    7    8 1
    16    7   10 1
    17    8    9 1
    18    8   29 1
    19    8   30 1
    20    9   31 1
    21    9   32 1
    22    9   33 1
    23   10   11 2
    24   10   12 2
    25   10   13 1
    26   13   18 ar
    27   13   14 ar
    28   14   15 ar
    29   14   34 1
    30   15   16 ar
    31   15   35 1
    32   16   17 ar
    33   16   36 1
    34   17   18 ar
    35   17   20 1
    36   18   19 1
@<TRIPOS>MOLECULE
ZINC30671728
   44    46     0     0     0
SMALL
USER_CHARGES
(2S)-N-(4-cyanophenyl)-2-(1-cyclopropylimidazol-2-yl)sulfanyl-3-methyl-butanamide
@<TRIPOS>ATOM
      1 C1         -0.8961    7.1188    1.6779 C.3       1 <0>        -0.1612
      2 C2          0.0907    5.9736    1.4420 C.3       1 <0>        -0.0780
      3 C3         -0.5549    4.6502    1.8576 C.3       1 <0>        -0.1533
      4 C4          0.4608    5.9167   -0.0415 C.3       1 <0>        -0.0974
      5 H1         -0.5006    5.9354   -0.5757 H         1 <0>         0.1247
      6 C5          1.1238    7.2089   -0.4438 C.2       1 <0>         0.5309
      7 O1          2.3320    7.2692   -0.5305 O.2       1 <0>        -0.4989
      8 N1          0.3741    8.2975   -0.7071 N.am      1 <0>        -0.6794
      9 C6          0.9901    9.5189   -0.9828 C.ar      1 <0>         0.1920
     10 C7          2.1899    9.8470   -0.3602 C.ar      1 <0>        -0.1295
     11 C8          2.8031   11.0492   -0.6335 C.ar      1 <0>        -0.0468
     12 C9          2.2130   11.9449   -1.5297 C.ar      1 <0>        -0.0524
     13 C10         1.0047   11.6140   -2.1495 C.ar      1 <0>        -0.0465
     14 C11         0.3999   10.4077   -1.8753 C.ar      1 <0>        -0.1494
     15 C12         2.8451   13.1983   -1.8127 C.1       1 <0>         0.2547
     16 N2          3.3466   14.1926   -2.0371 N.1       1 <0>        -0.4192
     17 S1          1.6003    4.5397   -0.3267 S.3       1 <0>         0.0611
     18 C13         1.7153    4.5966   -2.0840 C.2       1 <0>         0.1826
     19 N3          1.0238    5.3849   -2.8737 N.2       1 <0>        -0.4872
     20 C14         1.3770    5.1560   -4.1497 C.2       1 <0>        -0.0161
     21 C15         2.3111    4.1901   -4.1633 C.2       1 <0>        -0.0588
     22 N4          2.5356    3.8300   -2.8535 N.pl3     1 <0>        -0.4349
     23 C16         3.4785    2.8145   -2.3782 C.3       1 <0>        -0.0264
     24 C17         4.4460    2.2151   -3.4008 C.3       1 <0>        -0.1186
     25 C18         3.2790    1.3797   -2.8705 C.3       1 <0>        -0.1233
     26 H2         -0.4319    8.0702    1.3791 H         1 <0>         0.0655
     27 H3         -1.1622    7.1597    2.7445 H         1 <0>         0.0731
     28 H4         -1.8037    6.9498    1.0798 H         1 <0>         0.0650
     29 H5          0.9982    6.1426    2.0402 H         1 <0>         0.0863
     30 H6          0.1546    3.8269    1.6880 H         1 <0>         0.0664
     31 H7         -1.4625    4.4812    1.2595 H         1 <0>         0.0648
     32 H8         -0.8210    4.6911    2.9242 H         1 <0>         0.0682
     33 H9         -0.7234    8.2232   -0.7047 H         1 <0>         0.4375
     34 H10         2.6430    9.1564    0.3356 H         1 <0>         0.1432
     35 H11         3.7367   11.3016   -0.1528 H         1 <0>         0.1353
     36 H12         0.5457   12.3038   -2.8423 H         1 <0>         0.1366
     37 H13        -0.5336   10.1513   -2.3541 H         1 <0>         0.1371
     38 H14         0.9765    5.6605   -5.0167 H         1 <0>         0.1701
     39 H15         2.7968    3.7779   -5.0355 H         1 <0>         0.1745
     40 H16         3.5643    3.3142   -1.4020 H         1 <0>         0.1434
     41 H17         4.4259    2.8171   -4.3212 H         1 <0>         0.1121
     42 H18         5.4645    2.2143   -2.9853 H         1 <0>         0.1212
     43 H19         3.3328    0.6883   -2.0167 H         1 <0>         0.1204
     44 H20         2.2942    1.2910   -3.3526 H         1 <0>         0.1107
@<TRIPOS>BOND
     1    1    2 1
     2    1   26 1
     3    1   27 1
     4    1   28 1
     5    2    3 1
     6    2    4 1
     7    2   29 1
     8    3   30 1
     9    3   31 1
    10    3   32 1
    11    4    5 1
    12    4    6 1
    13    4   17 1
    14    6    7 2
    15    6    8 am
    16    8    9 1
    17    8   33 1
    18    9   14 ar
    19    9   10 ar
    20   10   11 ar
    21   10   34 1
    22   11   12 ar
    23   11   35 1
    24   12   13 ar
    25   12   15 1
    26   13   14 ar
    27   13   36 1
    28   14   37 1
    29   15   16 3
    30   17   18 1
    31   18   22 1
    32   18   19 2
    33   19   20 1
    34   20   21 2
    35   20   38 1
    36   21   22 1
    37   21   39 1
    38   22   23 1
    39   23   25 1
    40   23   24 1
    41   23   40 1
    42   24   25 1
    43   24   41 1
    44   24   42 1
    45   25   43 1
    46   25   44 1
@<TRIPOS>MOLECULE
ZINC42987015
   41    42     0     0     0
SMALL
USER_CHARGES

@<TRIPOS>ATOM
      1 C1          0.0449    1.5036   -0.0152 C.3       1 <0>        -0.0620
      2 C2          0.0542   -0.0033   -0.0190 C.2       1 <0>         0.0748
      3 N1          0.0583   -0.8473   -1.0307 N.2       1 <0>        -0.2752
      4 N2          0.0662   -2.0974   -0.8635 N.2       1 <0>        -0.2845
      5 C3          0.0709   -2.6406    0.3473 C.2       1 <0>         0.0118
      6 S1          0.0709   -1.1571    1.3501 S.3       1 <0>         0.0219
      7 S2          0.0814   -4.3353    0.8297 S.3       1 <0>         0.1371
      8 C4          0.0854   -5.2392   -0.7431 C.3       1 <0>        -0.1190
      9 H1         -0.7589   -4.9142   -1.3511 H         1 <0>         0.1273
     10 C5          1.3904   -4.9570   -1.4902 C.3       1 <0>        -0.0854
     11 C6          2.5670   -5.5250   -0.6940 C.3       1 <0>        -0.1580
     12 C7          1.3416   -5.6177   -2.8694 C.3       1 <0>        -0.1564
     13 C8         -0.0294   -6.7174   -0.4732 C.2       1 <0>         0.5442
     14 O1          0.2536   -7.1579    0.6209 O.2       1 <0>        -0.5022
     15 N3         -0.4465   -7.5499   -1.4476 N.am      1 <0>        -0.6503
     16 C9         -0.4428   -8.9349   -1.2349 C.ar      1 <0>         0.1168
     17 C10         0.4202   -9.4932   -0.3032 C.ar      1 <0>        -0.0937
     18 C11         0.4217  -10.8593   -0.0949 C.ar      1 <0>        -0.1336
     19 C12        -0.4350  -11.6727   -0.8135 C.ar      1 <0>        -0.0943
     20 C13        -1.2978  -11.1236   -1.7436 C.ar      1 <0>        -0.1882
     21 C14        -1.3096   -9.7543   -1.9543 C.ar      1 <0>         0.1008
     22 O2         -2.1617   -9.2121   -2.8648 O.3       1 <0>        -0.3216
     23 C15        -3.0217  -10.1130   -3.5654 C.3       1 <0>         0.0290
     24 H2          1.0703    1.8733   -0.0214 H         1 <0>         0.0985
     25 H3         -0.4773    1.8660   -0.9006 H         1 <0>         0.1025
     26 H4         -0.4649    1.8616    0.8793 H         1 <0>         0.0927
     27 H5          1.5167   -3.8807   -1.6072 H         1 <0>         0.0998
     28 H6          2.4407   -6.6013   -0.5770 H         1 <0>         0.0587
     29 H7          3.4967   -5.3240   -1.2263 H         1 <0>         0.0657
     30 H8          2.6018   -5.0543    0.2885 H         1 <0>         0.0703
     31 H9          0.5034   -5.2131   -3.4366 H         1 <0>         0.0633
     32 H10         2.2713   -5.4167   -3.4016 H         1 <0>         0.0702
     33 H11         1.2154   -6.6940   -2.7524 H         1 <0>         0.0608
     34 H12        -0.7493   -7.1903   -2.2960 H         1 <0>         0.4181
     35 H13         1.0909   -8.8603    0.2590 H         1 <0>         0.1529
     36 H14         1.0940  -11.2928    0.6308 H         1 <0>         0.1297
     37 H15        -0.4299  -12.7400   -0.6479 H         1 <0>         0.1277
     38 H16        -1.9655  -11.7618   -2.3035 H         1 <0>         0.1332
     39 H17        -2.4197  -10.8328   -4.1199 H         1 <0>         0.0574
     40 H18        -3.6535  -10.6413   -2.8514 H         1 <0>         0.0573
     41 H19        -3.6479   -9.5521   -4.2591 H         1 <0>         0.1020
@<TRIPOS>BOND
     1    1    2 1
     2    1   24 1
     3    1   25 1
     4    1   26 1
     5    2    6 1
     6    2    3 2
     7    3    4 1
     8    4    5 2
     9    5    6 1
    10    5    7 1
    11    7    8 1
    12    8    9 1
    13    8   10 1
    14    8   13 1
    15   10   11 1
    16   10   12 1
    17   10   27 1
    18   11   28 1
    19   11   29 1
    20   11   30 1
    21   12   31 1
    22   12   32 1
    23   12   33 1
    24   13   14 2
    25   13   15 am
    26   15   16 1
    27   15   34 1
    28   16   21 ar
    29   16   17 ar
    30   17   18 ar
    31   17   35 1
    32   18   19 ar
    33   18   36 1
    34   19   20 ar
    35   19   37 1
    36   20   21 ar
    37   20   38 1
    38   21   22 1
    39   22   23 1
    40   23   39 1
    41   23   40 1
    42   23   41 1
@<TRIPOS>MOLECULE
ZINC63422651
   47    48     0     0     0
SMALL
USER_CHARGES

@<TRIPOS>ATOM
      1 C1         -0.2554    0.2539    0.5159 C.3       1 <0>        -0.1395
      2 C2          0.5746   -1.0284    0.6040 C.3       1 <0>        -0.0296
      3 C3          1.6944   -0.8417    1.6298 C.3       1 <0>        -0.1397
      4 C4         -0.3241   -2.1890    1.0356 C.3       1 <0>        -0.1460
      5 C5          1.1744   -1.3323   -0.7447 C.ar      1 <0>        -0.0778
      6 C6          0.8663   -2.5186   -1.3853 C.ar      1 <0>        -0.1016
      7 C7          1.4141   -2.8002   -2.6213 C.ar      1 <0>        -0.1343
      8 C8          2.2753   -1.8900   -3.2213 C.ar      1 <0>         0.1335
      9 C9          2.5822   -0.6990   -2.5752 C.ar      1 <0>        -0.1126
     10 C10         2.0270   -0.4216   -1.3415 C.ar      1 <0>        -0.0957
     11 N1          2.8317   -2.1719   -4.4716 N.am      1 <0>        -0.6437
     12 C11         4.0856   -1.7688   -4.7575 C.2       1 <0>         0.5060
     13 O1          4.7640   -1.2417   -3.9001 O.2       1 <0>        -0.4837
     14 C12         4.6403   -1.9707   -6.1294 C.2       1 <0>         0.5133
     15 O2          4.0019   -2.5867   -6.9575 O.2       1 <0>        -0.4991
     16 N2          5.8499   -1.4687   -6.4478 N.am      1 <0>        -0.5801
     17 C13         6.5689   -0.6263   -5.4889 C.3       1 <0>         0.2177
     18 C14         7.3247   -1.4789   -4.5569 C.1       1 <0>        -0.1997
     19 C15         7.9275   -2.1590   -3.8136 C.1       1 <0>        -0.1764
     20 C16         6.4457   -1.7654   -7.7529 C.3       1 <0>         0.1943
     21 C17         6.0272   -0.7132   -8.7471 C.2       1 <0>        -0.0406
     22 C18         6.6861    0.4305   -9.0064 C.2       1 <0>        -0.1898
     23 C19         5.9455    1.1141   -9.9980 C.2       1 <0>        -0.2185
     24 C20         4.8783    0.3473  -10.2853 C.2       1 <0>        -0.0297
     25 O3          4.9361   -0.7609   -9.5288 O.3       1 <0>        -0.1634
     26 H1          0.3849    1.0807    0.2084 H         1 <0>         0.0571
     27 H2         -1.0531    0.1209   -0.2149 H         1 <0>         0.0568
     28 H3         -0.6892    0.4736    1.4914 H         1 <0>         0.0594
     29 H4          1.2605   -0.6220    2.6053 H         1 <0>         0.0594
     30 H5          2.2856   -1.7553    1.6925 H         1 <0>         0.0567
     31 H6          2.3346   -0.0149    1.3223 H         1 <0>         0.0573
     32 H7         -1.1219   -2.3220    0.3049 H         1 <0>         0.0592
     33 H8          0.2671   -3.1025    1.0984 H         1 <0>         0.0591
     34 H9         -0.7580   -1.9692    2.0111 H         1 <0>         0.0594
     35 H10         0.1968   -3.2257   -0.9182 H         1 <0>         0.1328
     36 H11         1.1737   -3.7271   -3.1206 H         1 <0>         0.1274
     37 H12         3.2512    0.0108   -3.0389 H         1 <0>         0.1316
     38 H13         2.2623    0.5057   -0.8403 H         1 <0>         0.1261
     39 H14         2.3156   -2.6577   -5.1338 H         1 <0>         0.4222
     40 H15         7.2582    0.0267   -6.0242 H         1 <0>         0.1028
     41 H16         5.8550   -0.0211   -4.9301 H         1 <0>         0.1228
     42 H17         8.4666   -2.7672   -3.1488 H         1 <0>         0.2163
     43 H18         7.5321   -1.7695   -7.6638 H         1 <0>         0.1201
     44 H19         6.1054   -2.7432   -8.0938 H         1 <0>         0.1067
     45 H20         7.6043    0.7630   -8.5453 H         1 <0>         0.1497
     46 H21         6.1896    2.0690  -10.4397 H         1 <0>         0.1502
     47 H22         4.1079    0.5813  -11.0051 H         1 <0>         0.2037
@<TRIPOS>BOND
     1    1    2 1
     2    1   26 1
     3    1   27 1
     4    1   28 1
     5    2    3 1
     6    2    4 1
     7    2    5 1
     8    3   29 1
     9    3   30 1
    10    3   31 1
    11    4   32 1
    12    4   33 1
    13    4   34 1
    14    5   10 ar
    15    5    6 ar
    16    6    7 ar
    17    6   35 1
    18    7    8 ar
    19    7   36 1
    20    8    9 ar
    21    8   11 1
    22    9   10 ar
    23    9   37 1
    24   10   38 1
    25   11   12 am
    26   11   39 1
    27   12   13 2
    28   12   14 1
    29   14   15 2
    30   14   16 am
    31   16   17 1
    32   16   20 1
    33   17   18 1
    34   17   40 1
    35   17   41 1
    36   18   19 3
    37   19   42 1
    38   20   21 1
    39   20   43 1
    40   20   44 1
    41   21   25 1
    42   21   22 2
    43   22   23 1
    44   22   45 1
    45   23   24 2
    46   23   46 1
    47   24   25 1
    48   24   47 1
@<TRIPOS>MOLECULE
ZINC66511616
   53    55     0     0     0
SMALL
USER_CHARGES

@<TRIPOS>ATOM
      1 C1         -2.1653   -1.9500   -1.9054 C.3       1 <0>        -0.1157
      2 C2         -1.1031   -1.6208   -0.8883 C.ar      1 <0>        -0.0820
      3 C3         -0.2155   -0.5876   -1.1253 C.ar      1 <0>        -0.1223
      4 C4          0.7586   -0.2857   -0.1925 C.ar      1 <0>        -0.1130
      5 C5          0.8452   -1.0166    0.9778 C.ar      1 <0>        -0.1130
      6 C6         -0.0426   -2.0489    1.2152 C.ar      1 <0>        -0.0679
      7 C7         -1.0198   -2.3482    0.2840 C.ar      1 <0>        -0.1118
      8 C8          0.0521   -2.8459    2.4907 C.3       1 <0>         0.2150
      9 C9         -1.3611   -3.2211    3.0017 C.3       1 <0>        -0.1293
     10 C10        -1.0877   -4.4687    3.8779 C.3       1 <0>        -0.1245
     11 C11         0.0081   -5.2371    3.1107 C.3       1 <0>        -0.1254
     12 C12         0.7328   -4.2053    2.2287 C.3       1 <0>        -0.1204
     13 N1          0.7861   -2.0932    3.5109 N.am      1 <0>        -0.7167
     14 C13         0.3192   -0.9025    3.9360 C.2       1 <0>         0.5269
     15 O1         -0.7523   -0.4949    3.5400 O.2       1 <0>        -0.5110
     16 C14         1.1284   -0.0776    4.9033 C.3       1 <0>        -0.1277
     17 H1          1.3071   -0.6275    5.8273 H         1 <0>         0.1182
     18 C15         2.4606    0.3770    4.2633 C.3       1 <0>        -0.1446
     19 C16         2.6734    1.7744    4.8025 C.2       1 <0>         0.5189
     20 O2          3.7251    2.3777    4.7727 O.2       1 <0>        -0.5293
     21 N2          1.5272    2.2501    5.3190 N.am      1 <0>        -0.6108
     22 C17         0.4378    1.2744    5.1893 C.3       1 <0>         0.1232
     23 C18         1.3834    3.5724    5.9332 C.3       1 <0>         0.1295
     24 C19         0.9862    4.5913    4.8632 C.3       1 <0>         0.0407
     25 O3         -0.3095    4.2677    4.3549 O.3       1 <0>        -0.3864
     26 C20        -0.7775    5.1627    3.3440 C.3       1 <0>         0.0326
     27 H2         -3.0626   -1.3683   -1.6949 H         1 <0>         0.0708
     28 H3         -1.8005   -1.7069   -2.9034 H         1 <0>         0.0662
     29 H4         -2.4009   -3.0130   -1.8536 H         1 <0>         0.0660
     30 H5         -0.2832   -0.0167   -2.0396 H         1 <0>         0.1197
     31 H6          1.4524    0.5209   -0.3780 H         1 <0>         0.1189
     32 H7          1.6069   -0.7812    1.7064 H         1 <0>         0.1130
     33 H8         -1.7159   -3.1524    0.4712 H         1 <0>         0.1232
     34 H9         -1.7824   -2.4134    3.6004 H         1 <0>         0.0878
     35 H10        -2.0193   -3.4703    2.1694 H         1 <0>         0.0797
     36 H11        -0.7270   -4.1717    4.8627 H         1 <0>         0.0648
     37 H12        -1.9880   -5.0765    3.9677 H         1 <0>         0.0683
     38 H13         0.7101   -5.6867    3.8129 H         1 <0>         0.0666
     39 H14        -0.4437   -6.0091    2.4878 H         1 <0>         0.0682
     40 H15         0.6328   -4.4765    1.1777 H         1 <0>         0.0825
     41 H16         1.7866   -4.1542    2.5028 H         1 <0>         0.0734
     42 H17         1.6082   -2.4517    3.8805 H         1 <0>         0.4023
     43 H18         3.2750   -0.2788    4.5711 H         1 <0>         0.1110
     44 H19         2.3748    0.3963    3.1769 H         1 <0>         0.1068
     45 H20        -0.2158    1.5468    4.3607 H         1 <0>         0.0990
     46 H21        -0.1315    1.2183    6.1171 H         1 <0>         0.0840
     47 H22         0.6121    3.5338    6.7023 H         1 <0>         0.0907
     48 H23         2.3309    3.8688    6.3833 H         1 <0>         0.1002
     49 H24         0.9658    5.5891    5.3015 H         1 <0>         0.0621
     50 H25         1.7120    4.5663    4.0504 H         1 <0>         0.0533
     51 H26        -0.8346    6.1724    3.7508 H         1 <0>         0.0414
     52 H27        -0.0883    5.1495    2.4997 H         1 <0>         0.0397
     53 H28        -1.7667    4.8489    3.0105 H         1 <0>         0.0871
@<TRIPOS>BOND
     1    1    2 1
     2    1   27 1
     3    1   28 1
     4    1   29 1
     5    2    7 ar
     6    2    3 ar
     7    3    4 ar
     8    3   30 1
     9    4    5 ar
    10    4   31 1
    11    5    6 ar
    12    5   32 1
    13    6    7 ar
    14    6    8 1
    15    7   33 1
    16    8   12 1
    17    8    9 1
    18    8   13 1
    19    9   10 1
    20    9   34 1
    21    9   35 1
    22   10   11 1
    23   10   36 1
    24   10   37 1
    25   11   12 1
    26   11   38 1
    27   11   39 1
    28   12   40 1
    29   12   41 1
    30   13   14 am
    31   13   42 1
    32   14   15 2
    33   14   16 1
    34   16   17 1
    35   16   22 1
    36   16   18 1
    37   18   19 1
    38   18   43 1
    39   18   44 1
    40   19   20 2
    41   19   21 am
    42   21   22 1
    43   21   23 1
    44   22   45 1
    45   22   46 1
    46   23   24 1
    47   23   47 1
    48   23   48 1
    49   24   25 1
    50   24   49 1
    51   24   50 1
    52   25   26 1
    53   26   51 1
    54   26   52 1
    55   26   53 1
@<TRIPOS>MOLECULE
ZINC19427948
   32    32     0     0     0
SMALL
USER_CHARGES
N-allyl-1-amino-cyclohexane-1-carboxamide
@<TRIPOS>ATOM
      1 C1         -4.5471   -2.3754    1.1810 C.2       1 <0>        -0.1451
      2 C2         -3.8345   -2.0979    0.1174 C.2       1 <0>        -0.2033
      3 C3         -3.8354   -0.7004   -0.4465 C.3       1 <0>         0.1469
      4 N1         -2.4577   -0.2114   -0.5417 N.am      1 <0>        -0.7310
      5 C4         -2.2127    1.0239   -1.0219 C.2       1 <0>         0.5008
      6 O1         -3.1328    1.7306   -1.3752 O.2       1 <0>        -0.4821
      7 C5         -0.7955    1.5269   -1.1198 C.3       1 <0>         0.0636
      8 C6         -0.1755    1.0519   -2.4354 C.3       1 <0>        -0.1351
      9 C7          1.2634    1.5626   -2.5348 C.3       1 <0>        -0.1302
     10 C8          1.2657    3.0920   -2.4928 C.3       1 <0>        -0.1385
     11 C9          0.6457    3.5670   -1.1771 C.3       1 <0>        -0.1319
     12 C10        -0.7931    3.0563   -1.0777 C.3       1 <0>        -0.1275
     13 N2         -0.0116    1.0048    0.0076 N.4       1 <0>        -0.6812
     14 H1         -4.5465   -3.3955    1.5927 H         1 <0>         0.1140
     15 H2         -5.1461   -1.5884    1.6624 H         1 <0>         0.1063
     16 H3         -3.2355   -2.8849   -0.3640 H         1 <0>         0.1218
     17 H4         -4.2914   -0.7092   -1.4475 H         1 <0>         0.0864
     18 H5         -4.4145   -0.0387    0.2144 H         1 <0>         0.0823
     19 H6         -1.6232   -0.8524   -0.2213 H         1 <0>         0.4092
     20 H7         -0.1772   -0.0477   -2.4656 H         1 <0>         0.0931
     21 H8         -0.7625    1.4428   -3.2796 H         1 <0>         0.1169
     22 H9          1.8503    1.1717   -1.6906 H         1 <0>         0.0610
     23 H10         1.7092    1.2211   -3.4806 H         1 <0>         0.0981
     24 H11         2.3001    3.4592   -2.5643 H         1 <0>         0.0848
     25 H12         0.6787    3.4829   -3.3370 H         1 <0>         0.0825
     26 H13         1.2327    3.1761   -0.3330 H         1 <0>         0.0594
     27 H14         0.6474    4.6666   -1.1468 H         1 <0>         0.0979
     28 H15        -1.3801    3.4472   -1.9219 H         1 <0>         0.1209
     29 H16        -1.2389    3.3978   -0.1318 H         1 <0>         0.0930
     30 H17         1.0228    1.3720   -0.0639 H         1 <0>         0.4593
     31 H18        -0.0133   -0.0948   -0.0227 H         1 <0>         0.4473
     32 H19        -0.4574    1.3463    0.9535 H         1 <0>         0.4605
@<TRIPOS>BOND
     1    1    2 2
     2    1   14 1
     3    1   15 1
     4    2    3 1
     5    2   16 1
     6    3    4 1
     7    3   17 1
     8    3   18 1
     9    4    5 am
    10    4   19 1
    11    5    6 2
    12    5    7 1
    13    7   12 1
    14    7    8 1
    15    7   13 1
    16    8    9 1
    17    8   20 1
    18    8   21 1
    19    9   10 1
    20    9   22 1
    21    9   23 1
    22   10   11 1
    23   10   24 1
    24   10   25 1
    25   11   12 1
    26   11   26 1
    27   11   27 1
    28   12   28 1
    29   12   29 1
    30   13   30 1
    31   13   31 1
    32   13   32 1
@<TRIPOS>MOLECULE
ZINC34781473
   27    26     0     0     0
SMALL
USER_CHARGES

@<TRIPOS>ATOM
      1 C1         -1.5762    1.0245   -0.1550 C.3       1 <0>        -0.1595
      2 C2         -0.9995   -0.3927   -0.1626 C.3       1 <0>        -0.1355
      3 C3         -0.0290   -0.5419   -1.3360 C.3       1 <0>        -0.1061
      4 H1         -0.5357   -0.2739   -2.2630 H         1 <0>         0.1317
      5 C4          1.1718    0.3826   -1.1254 C.3       1 <0>        -0.1786
      6 C5          0.4521   -1.9920   -1.4186 C.3       1 <0>        -0.0092
      7 H2         -0.4033   -2.6506   -1.5686 H         1 <0>         0.1605
      8 C6          1.4227   -2.1413   -2.5919 C.3       1 <0>         0.0604
      9 H3          2.3208   -1.5551   -2.3973 H         1 <0>         0.1664
     10 C7          1.8010   -3.6146   -2.7565 C.3       1 <0>         0.4097
     11 F1          0.6411   -4.3773   -2.9302 F         1 <0>        -0.1694
     12 F2          2.6277   -3.7615   -3.8755 F         1 <0>        -0.1465
     13 F3          2.4801   -4.0521   -1.6143 F         1 <0>        -0.1853
     14 O1          0.7983   -1.6732   -3.7890 O.3       1 <0>        -0.4908
     15 N1          1.1351   -2.3532   -0.1691 N.4       1 <0>        -0.6381
     16 H4         -0.7659    1.7459   -0.0503 H         1 <0>         0.0654
     17 H5         -2.1059    1.2062   -1.0901 H         1 <0>         0.0666
     18 H6         -2.2676    1.1308    0.6809 H         1 <0>         0.0691
     19 H7         -0.4697   -0.5744    0.7725 H         1 <0>         0.0617
     20 H8         -1.8098   -1.1141   -0.2673 H         1 <0>         0.0812
     21 H9          1.8632    0.2762   -1.9613 H         1 <0>         0.0774
     22 H10         0.8291    1.4156   -1.0665 H         1 <0>         0.0949
     23 H11         1.6786    0.1145   -0.1983 H         1 <0>         0.0547
     24 H12        -0.0091   -2.1505   -4.0241 H         1 <0>         0.4033
     25 H13         1.3302   -3.3432   -0.1666 H         1 <0>         0.4360
     26 H14         2.0007   -1.8396   -0.0983 H         1 <0>         0.4367
     27 H15         0.5434   -2.1251    0.6157 H         1 <0>         0.4430
@<TRIPOS>BOND
     1    1    2 1
     2    1   16 1
     3    1   17 1
     4    1   18 1
     5    2    3 1
     6    2   19 1
     7    2   20 1
     8    3    4 1
     9    3    5 1
    10    3    6 1
    11    5   21 1
    12    5   22 1
    13    5   23 1
    14    6    7 1
    15    6    8 1
    16    6   15 1
    17    8    9 1
    18    8   10 1
    19    8   14 1
    20   10   11 1
    21   10   12 1
    22   10   13 1
    23   14   24 1
    24   15   25 1
    25   15   26 1
    26   15   27 1
@<TRIPOS>MOLECULE
ZINC37623152
   44    45     0     0     0
SMALL
USER_CHARGES

@<TRIPOS>ATOM
      1 C1         -0.0187    1.5258    0.0104 C.3       1 <0>        -0.1503
      2 C2          0.0021   -0.0041    0.0020 C.3       1 <0>        -0.0981
      3 H1          0.5123   -0.3556   -0.8948 H         1 <0>         0.0758
      4 C3         -1.4333   -0.5336    0.0129 C.3       1 <0>        -0.1145
      5 C4         -1.4126   -2.0635    0.0045 C.3       1 <0>        -0.1243
      6 C5         -0.6726   -2.5703    1.2440 C.3       1 <0>        -0.1192
      7 C6          0.7628   -2.0407    1.2331 C.3       1 <0>        -0.1229
      8 C7          0.7421   -0.5109    1.2415 C.3       1 <0>         0.1474
      9 H2          0.2319   -0.1594    2.1383 H         1 <0>         0.0911
     10 N1          2.1165   -0.0038    1.2311 N.am      1 <0>        -0.7196
     11 C8          2.7950    0.1277    2.3882 C.2       1 <0>         0.5160
     12 O1          2.2678   -0.1736    3.4380 O.2       1 <0>        -0.5380
     13 C9          4.2088    0.6494    2.3775 C.3       1 <0>        -0.1206
     14 C10         5.0883   -0.2782    1.5367 C.3       1 <0>        -0.1075
     15 C11         5.0681   -1.6845    2.1390 C.3       1 <0>        -0.1469
     16 C12         5.6038   -1.6337    3.5712 C.3       1 <0>         0.0258
     17 C13         4.7243   -0.7061    4.4121 C.3       1 <0>        -0.1575
     18 C14         4.7445    0.7002    3.8098 C.3       1 <0>        -0.0938
     19 N2          5.5844   -2.9839    4.1495 N.4       1 <0>        -0.6364
     20 H3          1.0039    1.9031    0.0027 H         1 <0>         0.0533
     21 H4         -0.5459    1.8868   -0.8726 H         1 <0>         0.0623
     22 H5         -0.5289    1.8773    0.9072 H         1 <0>         0.0574
     23 H6         -1.9435   -0.1821    0.9097 H         1 <0>         0.0670
     24 H7         -1.9605   -0.1726   -0.8702 H         1 <0>         0.0720
     25 H8         -2.4352   -2.4408    0.0122 H         1 <0>         0.0688
     26 H9         -0.9024   -2.4150   -0.8923 H         1 <0>         0.0637
     27 H10        -1.1828   -2.2188    2.1408 H         1 <0>         0.0657
     28 H11        -0.6578   -3.6602    1.2380 H         1 <0>         0.0662
     29 H12         1.2900   -2.4018    2.1162 H         1 <0>         0.0591
     30 H13         1.2730   -2.3923    0.3363 H         1 <0>         0.0629
     31 H14         2.5382    0.2372    0.3915 H         1 <0>         0.4012
     32 H15         4.2232    1.6513    1.9484 H         1 <0>         0.1137
     33 H16         4.7066   -0.3145    0.5163 H         1 <0>         0.0887
     34 H17         6.1109    0.0991    1.5290 H         1 <0>         0.0904
     35 H18         4.0455   -2.0618    2.1467 H         1 <0>         0.0863
     36 H19         5.6946   -2.3454    1.5400 H         1 <0>         0.0927
     37 H20         6.6264   -1.2564    3.5635 H         1 <0>         0.1415
     38 H21         3.7017   -1.0834    4.4198 H         1 <0>         0.1157
     39 H22         5.1059   -0.6698    5.4324 H         1 <0>         0.0869
     40 H23         5.7671    1.0775    3.8020 H         1 <0>         0.0817
     41 H24         4.1179    1.3611    4.4088 H         1 <0>         0.0917
     42 H25         6.1644   -3.5957    3.5950 H         1 <0>         0.4346
     43 H26         5.9376   -2.9504    5.0941 H         1 <0>         0.4368
     44 H27         4.6378   -3.3332    4.1567 H         1 <0>         0.4334
@<TRIPOS>BOND
     1    1    2 1
     2    1   20 1
     3    1   21 1
     4    1   22 1
     5    2    3 1
     6    2    8 1
     7    2    4 1
     8    4    5 1
     9    4   23 1
    10    4   24 1
    11    5    6 1
    12    5   25 1
    13    5   26 1
    14    6    7 1
    15    6   27 1
    16    6   28 1
    17    7    8 1
    18    7   29 1
    19    7   30 1
    20    8    9 1
    21    8   10 1
    22   10   11 am
    23   10   31 1
    24   11   12 2
    25   11   13 1
    26   13   18 1
    27   13   14 1
    28   13   32 1
    29   14   15 1
    30   14   33 1
    31   14   34 1
    32   15   16 1
    33   15   35 1
    34   15   36 1
    35   16   17 1
    36   16   19 1
    37   16   37 1
    38   17   18 1
    39   17   38 1
    40   17   39 1
    41   18   40 1
    42   18   41 1
    43   19   42 1
    44   19   43 1
    45   19   44 1
@<TRIPOS>MOLECULE
ZINC44464117
   31    32     0     0     0
SMALL
USER_CHARGES

@<TRIPOS>ATOM
      1 C1         -0.0184    1.5028    0.0103 C.3       1 <0>        -0.1121
      2 C2          0.0021   -0.0041    0.0020 C.2       1 <0>        -0.0872
      3 C3          0.0057   -0.6658   -1.1606 C.2       1 <0>        -0.1784
      4 S1          0.0319   -2.3751   -0.6523 S.3       1 <0>         0.1991
      5 C4          0.0370   -2.1319    1.0913 C.2       1 <0>        -0.2444
      6 C5          0.0242   -0.7462    1.2734 C.2       1 <0>        -0.1311
      7 C6          0.0324   -0.3575    2.6935 C.2       1 <0>        -0.0617
      8 C7          0.0552   -1.2969    3.6455 C.2       1 <0>        -0.2302
      9 S2          0.0544   -2.8172    2.7128 S.3       1 <0>         0.2045
     10 C8          0.0683   -1.1152    5.1415 C.3       1 <0>        -0.0472
     11 C9         -1.3696   -1.0734    5.6628 C.3       1 <0>         0.0361
     12 H1         -1.8999   -1.9687    5.3383 H         1 <0>         0.1529
     13 C10        -1.3563   -1.0143    7.1916 C.3       1 <0>         0.0514
     14 O1         -2.6959   -1.0926    7.6829 O.3       1 <0>        -0.5794
     15 N1         -2.0482    0.1167    5.1326 N.4       1 <0>        -0.6365
     16 C11         0.0157    1.1004    3.0749 C.3       1 <0>        -0.1350
     17 H2          1.0042    1.8801    0.0026 H         1 <0>         0.0763
     18 H3         -0.5455    1.8639   -0.8728 H         1 <0>         0.0754
     19 H4         -0.5286    1.8543    0.9071 H         1 <0>         0.0690
     20 H5         -0.0053   -0.2632   -2.1627 H         1 <0>         0.2003
     21 H6          0.5984   -1.9478    5.6040 H         1 <0>         0.1316
     22 H7          0.5720   -0.1810    5.3896 H         1 <0>         0.1139
     23 H8         -0.7764   -1.8504    7.5824 H         1 <0>         0.0992
     24 H9         -0.9049   -0.0763    7.5150 H         1 <0>         0.0764
     25 H10        -2.7637   -1.0609    8.6470 H         1 <0>         0.4126
     26 H11        -2.0570    0.0778    4.1244 H         1 <0>         0.4332
     27 H12        -2.9965    0.1443    5.4764 H         1 <0>         0.4435
     28 H13        -1.0158    1.4374    3.1771 H         1 <0>         0.0635
     29 H14         0.5372    1.2340    4.0226 H         1 <0>         0.0768
     30 H15         0.5136    1.6842    2.3007 H         1 <0>         0.0977
     31 H16        -1.5574    0.9456    5.4329 H         1 <0>         0.4300
@<TRIPOS>BOND
     1    1    2 1
     2    1   17 1
     3    1   18 1
     4    1   19 1
     5    2    6 1
     6    2    3 2
     7    3    4 1
     8    3   20 1
     9    4    5 1
    10    5    9 1
    11    5    6 2
    12    6    7 1
    13    7    8 2
    14    7   16 1
    15    8    9 1
    16    8   10 1
    17   10   11 1
    18   10   21 1
    19   10   22 1
    20   11   12 1
    21   11   13 1
    22   11   15 1
    23   13   14 1
    24   13   23 1
    25   13   24 1
    26   14   25 1
    27   15   26 1
    28   15   27 1
    29   15   31 1
    30   16   28 1
    31   16   29 1
    32   16   30 1
@<TRIPOS>MOLECULE
ZINC55122179
   40    40     0     0     0
SMALL
USER_CHARGES

@<TRIPOS>ATOM
      1 C1         -0.0187    1.5258    0.0104 C.3       1 <0>        -0.1548
      2 C2          0.0021   -0.0041    0.0020 C.3       1 <0>        -0.1356
      3 C3          0.7182   -0.4975   -1.2568 C.3       1 <0>         0.1380
      4 H1          0.2444   -0.0644   -2.1377 H         1 <0>         0.0916
      5 C4          0.6303   -2.0233   -1.3286 C.3       1 <0>        -0.1644
      6 N1          2.1249   -0.0911   -1.2094 N.am      1 <0>        -0.7122
      7 C5          2.8241    0.0515   -2.3527 C.2       1 <0>         0.5204
      8 O1          2.2887   -0.1566   -3.4209 O.2       1 <0>        -0.5518
      9 C6          4.2711    0.4696   -2.3039 C.3       1 <0>        -0.1056
     10 H2          4.3517    1.4443   -1.8227 H         1 <0>         0.1188
     11 C7          5.0730   -0.5608   -1.5064 C.3       1 <0>        -0.1236
     12 C8          4.9600   -1.9289   -2.1819 C.3       1 <0>        -0.1172
     13 C9          5.5141   -1.8422   -3.6054 C.3       1 <0>        -0.1085
     14 H3          5.4335   -2.8169   -4.0866 H         1 <0>         0.0959
     15 C10         4.7121   -0.8118   -4.4029 C.3       1 <0>         0.0146
     16 H4          3.6655   -1.1142   -4.4382 H         1 <0>         0.1669
     17 C11         4.8252    0.5563   -3.7275 C.3       1 <0>        -0.1219
     18 N2          5.2441   -0.7286   -5.7697 N.4       1 <0>        -0.6350
     19 C12         6.9832   -1.4178   -3.5558 C.3       1 <0>        -0.1753
     20 H5          1.0039    1.9031    0.0027 H         1 <0>         0.0519
     21 H6         -0.5459    1.8868   -0.8726 H         1 <0>         0.0565
     22 H7         -0.5289    1.8773    0.9072 H         1 <0>         0.0620
     23 H8          0.5293   -0.3651    0.8851 H         1 <0>         0.0706
     24 H9         -1.0205   -0.3814    0.0098 H         1 <0>         0.0842
     25 H10        -0.4163   -2.3257   -1.3639 H         1 <0>         0.0717
     26 H11         1.1405   -2.3748   -2.2254 H         1 <0>         0.0568
     27 H12         1.1041   -2.4564   -0.4477 H         1 <0>         0.0595
     28 H13         2.5531    0.0754   -0.3551 H         1 <0>         0.4038
     29 H14         6.1197   -0.2584   -1.4711 H         1 <0>         0.0888
     30 H15         4.6783   -0.6225   -0.4923 H         1 <0>         0.0836
     31 H16         5.5313   -2.6630   -1.6137 H         1 <0>         0.0902
     32 H17         3.9133   -2.2313   -2.2172 H         1 <0>         0.0748
     33 H18         4.2539    1.2904   -4.2956 H         1 <0>         0.0952
     34 H19         5.8718    0.8587   -3.6922 H         1 <0>         0.0964
     35 H20         5.1695   -1.6309   -6.2152 H         1 <0>         0.4353
     36 H21         4.7152   -0.0491   -6.2957 H         1 <0>         0.4368
     37 H22         7.5545   -2.1518   -2.9876 H         1 <0>         0.0846
     38 H23         7.3779   -1.3560   -4.5700 H         1 <0>         0.0525
     39 H24         7.0637   -0.4431   -3.0746 H         1 <0>         0.0775
     40 H25         6.2129   -0.4487   -5.7370 H         1 <0>         0.4267
@<TRIPOS>BOND
     1    1    2 1
     2    1   20 1
     3    1   21 1
     4    1   22 1
     5    2    3 1
     6    2   23 1
     7    2   24 1
     8    3    4 1
     9    3    5 1
    10    3    6 1
    11    5   25 1
    12    5   26 1
    13    5   27 1
    14    6    7 am
    15    6   28 1
    16    7    8 2
    17    7    9 1
    18    9   10 1
    19    9   17 1
    20    9   11 1
    21   11   12 1
    22   11   29 1
    23   11   30 1
    24   12   13 1
    25   12   31 1
    26   12   32 1
    27   13   14 1
    28   13   15 1
    29   13   19 1
    30   15   16 1
    31   15   17 1
    32   15   18 1
    33   17   33 1
    34   17   34 1
    35   18   35 1
    36   18   36 1
    37   18   40 1
    38   19   37 1
    39   19   38 1
    40   19   39 1
@<TRIPOS>MOLECULE
ZINC00528618
   42    44     0     0     0
SMALL
USER_CHARGES
ethyl 2-(ethylBLAHyl)sulfanylacetate
@<TRIPOS>ATOM
      1 C1         -9.1152    1.5699    0.6934 C.3       1 <0>        -0.1442
      2 C2         -8.3835    0.2373    0.8651 C.3       1 <0>        -0.0556
      3 C3         -6.9122    0.4350    0.6053 C.ar      1 <0>         0.3500
      4 N1         -6.1284    0.7557    1.6282 N.ar      1 <0>        -0.4582
      5 C4         -4.8472    0.9209    1.3659 C.ar      1 <0>         0.1189
      6 C5         -4.2914    0.7733    0.0698 C.ar      1 <0>        -0.1734
      7 C6         -2.8588    0.9922   -0.0386 C.2       1 <0>        -0.0903
      8 C7         -2.2059    1.3121    1.1020 C.2       1 <0>        -0.1342
      9 S1         -3.4545    1.3384    2.3640 S.3       1 <0>         0.1234
     10 C8         -0.7382    1.5844    1.2658 C.3       1 <0>        -0.0422
     11 C9         -0.0127    1.0858    0.0080 C.3       1 <0>        -0.1160
     12 C10        -0.7603    1.5966   -1.2273 C.3       1 <0>        -0.1190
     13 C11        -2.1007    0.8735   -1.3583 C.3       1 <0>        -0.0673
     14 C12        -5.1915    0.4280   -0.9799 C.ar      1 <0>         0.1942
     15 N2         -6.4676    0.2806   -0.6253 N.ar      1 <0>        -0.5390
     16 S2         -4.6508    0.2102   -2.6427 S.3       1 <0>         0.0816
     17 C13        -6.2261   -0.1995   -3.4343 C.3       1 <0>        -0.1447
     18 C14        -6.0026   -0.4349   -4.9059 C.2       1 <0>         0.4823
     19 O1         -4.8921   -0.3358   -5.3717 O.2       1 <0>        -0.4931
     20 O2         -7.0371   -0.7546   -5.6992 O.3       1 <0>        -0.3495
     21 C15        -6.7479   -0.9670   -7.1062 C.3       1 <0>         0.0622
     22 C16        -8.0404   -1.3197   -7.8449 C.3       1 <0>        -0.1543
     23 H1        -10.1793    1.4270    0.8813 H         1 <0>         0.0716
     24 H2         -8.7160    2.2974    1.4002 H         1 <0>         0.0592
     25 H3         -8.9717    1.9349   -0.3236 H         1 <0>         0.0581
     26 H4         -8.7827   -0.4901    0.1583 H         1 <0>         0.0943
     27 H5         -8.5270   -0.1277    1.8821 H         1 <0>         0.0950
     28 H6         -0.3593    1.0563    2.1407 H         1 <0>         0.0885
     29 H7         -0.5754    2.6558    1.3820 H         1 <0>         0.0904
     30 H8          0.0021   -0.0041    0.0020 H         1 <0>         0.0710
     31 H9          1.0090    1.4656    0.0003 H         1 <0>         0.0789
     32 H10        -0.9349    2.6679   -1.1278 H         1 <0>         0.0690
     33 H11        -0.1594    1.4097   -2.1173 H         1 <0>         0.0762
     34 H12        -2.6851    1.3300   -2.1571 H         1 <0>         0.0854
     35 H13        -1.9273   -0.1778   -1.5880 H         1 <0>         0.0872
     36 H14        -6.6371   -1.1013   -2.9804 H         1 <0>         0.1377
     37 H15        -6.9255    0.6257   -3.3004 H         1 <0>         0.1376
     38 H16        -6.3231   -0.0576   -7.5311 H         1 <0>         0.0740
     39 H17        -6.0347   -1.7846   -7.2111 H         1 <0>         0.0740
     40 H18        -7.8233   -1.4792   -8.9011 H         1 <0>         0.0835
     41 H19        -8.4652   -2.2292   -7.4200 H         1 <0>         0.0685
     42 H20        -8.7536   -0.5021   -7.7400 H         1 <0>         0.0684
@<TRIPOS>BOND
     1    1    2 1
     2    1   23 1
     3    1   24 1
     4    1   25 1
     5    2    3 1
     6    2   26 1
     7    2   27 1
     8    3   15 ar
     9    3    4 ar
    10    4    5 ar
    11    5    9 1
    12    5    6 ar
    13    6    7 1
    14    6   14 ar
    15    7   13 1
    16    7    8 2
    17    8    9 1
    18    8   10 1
    19   10   11 1
    20   10   28 1
    21   10   29 1
    22   11   12 1
    23   11   30 1
    24   11   31 1
    25   12   13 1
    26   12   32 1
    27   12   33 1
    28   13   34 1
    29   13   35 1
    30   14   15 ar
    31   14   16 1
    32   16   17 1
    33   17   18 1
    34   17   36 1
    35   17   37 1
    36   18   19 2
    37   18   20 1
    38   20   21 1
    39   21   22 1
    40   21   38 1
    41   21   39 1
    42   22   40 1
    43   22   41 1
    44   22   42 1
@<TRIPOS>MOLECULE
ZINC09250286
   55    56     0     0     0
SMALL
USER_CHARGES
N,N-diisobutyl-2-(2,5,6-trimethylbenzoimidazol-1-yl)-acetamide
@<TRIPOS>ATOM
      1 C1         -1.1319   -6.3363    2.5820 C.3       1 <0>        -0.1135
      2 C2         -0.6645   -5.1352    1.8012 C.ar      1 <0>        -0.0934
      3 C3         -0.6393   -5.1841    0.4359 C.ar      1 <0>        -0.0624
      4 C4         -0.2063   -4.0734   -0.2925 C.ar      1 <0>         0.0516
      5 C5          0.2055   -2.9163    0.3906 C.ar      1 <0>         0.0544
      6 C6          0.1675   -2.8829    1.7776 C.ar      1 <0>        -0.1095
      7 C7         -0.2636   -3.9911    2.4758 C.ar      1 <0>        -0.0670
      8 C8         -0.2991   -3.9595    3.9821 C.3       1 <0>        -0.1145
      9 N1          0.5657   -2.0067   -0.5836 N.pl3     1 <0>        -0.4765
     10 C9          0.3811   -2.6102   -1.7887 C.2       1 <0>         0.2943
     11 N2         -0.0702   -3.8187   -1.6193 N.2       1 <0>        -0.4901
     12 C10         0.6590   -1.9720   -3.1253 C.3       1 <0>        -0.0790
     13 C11         1.0607   -0.6460   -0.3607 C.3       1 <0>         0.0794
     14 C12        -0.1019    0.3121   -0.3259 C.2       1 <0>         0.4960
     15 O1         -1.2200   -0.0815   -0.5823 O.2       1 <0>        -0.5120
     16 N3          0.1008    1.6065   -0.0098 N.am      1 <0>        -0.6046
     17 C13         1.4346    2.0630    0.3888 C.3       1 <0>         0.0978
     18 C14         2.1455    2.6772   -0.8188 C.3       1 <0>        -0.1147
     19 C15         3.4844    3.2700   -0.3753 C.3       1 <0>        -0.1478
     20 C16         2.3908    1.5942   -1.8714 C.3       1 <0>        -0.1606
     21 C17        -1.0113    2.5583   -0.0706 C.3       1 <0>         0.1210
     22 C18        -1.7186    2.6034    1.2853 C.3       1 <0>        -0.1122
     23 C19        -0.7631    3.1643    2.3405 C.3       1 <0>        -0.1502
     24 C20        -2.9534    3.5014    1.1867 C.3       1 <0>        -0.1455
     25 H1         -0.2808   -6.9812    2.8008 H         1 <0>         0.0704
     26 H2         -1.5882   -6.0076    3.5158 H         1 <0>         0.0708
     27 H3         -1.8649   -6.8890    1.9943 H         1 <0>         0.0663
     28 H4         -0.9538   -6.0797   -0.0792 H         1 <0>         0.1292
     29 H5          0.4788   -1.9949    2.3077 H         1 <0>         0.1160
     30 H6          0.6561   -4.3073    4.3754 H         1 <0>         0.0720
     31 H7         -0.4813   -2.9393    4.3199 H         1 <0>         0.0637
     32 H8         -1.0978   -4.6089    4.3404 H         1 <0>         0.0740
     33 H9          1.6897   -2.1738   -3.4170 H         1 <0>         0.0894
     34 H10        -0.0178   -2.3854   -3.8731 H         1 <0>         0.0992
     35 H11         0.5062   -0.8952   -3.0526 H         1 <0>         0.0739
     36 H12         1.7364   -0.3682   -1.1696 H         1 <0>         0.1336
     37 H13         1.5943   -0.6045    0.5889 H         1 <0>         0.1151
     38 H14         1.3423    2.8117    1.1756 H         1 <0>         0.0922
     39 H15         2.0128    1.2164    0.7589 H         1 <0>         0.0797
     40 H16         1.5232    3.4640   -1.2453 H         1 <0>         0.0786
     41 H17         4.1067    2.4832    0.0511 H         1 <0>         0.0580
     42 H18         3.9908    3.7076   -1.2357 H         1 <0>         0.0618
     43 H19         3.3096    4.0415    0.3745 H         1 <0>         0.0588
     44 H20         2.8116    2.0482   -2.7685 H         1 <0>         0.0656
     45 H21         3.0882    0.8553   -1.4767 H         1 <0>         0.0594
     46 H22         1.4474    1.1076   -2.1187 H         1 <0>         0.0539
     47 H23        -0.6284    3.5494   -0.3139 H         1 <0>         0.0802
     48 H24        -1.7177    2.2431   -0.8386 H         1 <0>         0.0838
     49 H25        -2.0235    1.5964    1.5698 H         1 <0>         0.0735
     50 H26         0.1166    2.5245    2.4108 H         1 <0>         0.0556
     51 H27        -0.4583    4.1713    2.0561 H         1 <0>         0.0559
     52 H28        -1.2670    3.1964    3.3065 H         1 <0>         0.0562
     53 H29        -3.6341    3.1019    0.4350 H         1 <0>         0.0572
     54 H30        -3.4573    3.5336    2.1527 H         1 <0>         0.0588
     55 H31        -2.6486    4.5085    0.9023 H         1 <0>         0.0563
@<TRIPOS>BOND
     1    1    2 1
     2    1   25 1
     3    1   26 1
     4    1   27 1
     5    2    7 ar
     6    2    3 ar
     7    3    4 ar
     8    3   28 1
     9    4   11 1
    10    4    5 ar
    11    5    6 ar
    12    5    9 1
    13    6    7 ar
    14    6   29 1
    15    7    8 1
    16    8   30 1
    17    8   31 1
    18    8   32 1
    19    9   10 1
    20    9   13 1
    21   10   11 2
    22   10   12 1
    23   12   33 1
    24   12   34 1
    25   12   35 1
    26   13   14 1
    27   13   36 1
    28   13   37 1
    29   14   15 2
    30   14   16 am
    31   16   17 1
    32   16   21 1
    33   17   18 1
    34   17   38 1
    35   17   39 1
    36   18   19 1
    37   18   20 1
    38   18   40 1
    39   19   41 1
    40   19   42 1
    41   19   43 1
    42   20   44 1
    43   20   45 1
    44   20   46 1
    45   21   22 1
    46   21   47 1
    47   21   48 1
    48   22   23 1
    49   22   24 1
    50   22   49 1
    51   23   50 1
    52   23   51 1
    53   23   52 1
    54   24   53 1
    55   24   54 1
    56   24   55 1
@<TRIPOS>MOLECULE
ZINC25652161
   46    48     0     0     0
SMALL
USER_CHARGES
[4-(2-methoxyethyl)phenyl] tetralin-6-sulfonate
@<TRIPOS>ATOM
      1 C1         -6.3221    5.7895    7.5651 C.3       1 <0>         0.0285
      2 O1         -5.9663    6.0088    6.1986 O.3       1 <0>        -0.3917
      3 C2         -5.4592    4.8483    5.5366 C.3       1 <0>         0.0634
      4 C3         -5.1130    5.1979    4.0879 C.3       1 <0>        -0.0850
      5 C4         -4.5782    3.9741    3.3898 C.ar      1 <0>        -0.0621
      6 C5         -5.4450    3.1199    2.7335 C.ar      1 <0>        -0.0965
      7 C6         -4.9572    1.9974    2.0929 C.ar      1 <0>        -0.0871
      8 C7         -3.5965    1.7276    2.1083 C.ar      1 <0>         0.0594
      9 C8         -2.7296    2.5832    2.7724 C.ar      1 <0>        -0.1144
     10 C9         -3.2216    3.7077    3.4063 C.ar      1 <0>        -0.0982
     11 O2         -3.1142    0.6240    1.4787 O.3       1 <0>        -0.6580
     12 S1         -2.7353    0.8575    0.0233 S.o2      1 <0>         2.6750
     13 O3         -3.7213    1.7254   -0.5189 O.2       1 <0>        -0.9502
     14 O4         -2.4553   -0.4195   -0.5335 O.2       1 <0>        -0.9281
     15 C10        -1.2179    1.7532    0.0173 C.ar      1 <0>        -0.7006
     16 C11        -0.0126    1.0758    0.0080 C.ar      1 <0>        -0.0195
     17 C12         1.1710    1.7840    0.0005 C.ar      1 <0>        -0.1405
     18 C13         1.1626    3.1731    0.0079 C.ar      1 <0>        -0.0136
     19 C14        -0.0375    3.8475    0.0175 C.ar      1 <0>        -0.0961
     20 C15        -1.2284    3.1324    0.0272 C.ar      1 <0>        -0.0119
     21 C16        -0.1224    5.3514    0.0155 C.3       1 <0>        -0.0854
     22 C17         1.2097    5.9648    0.4422 C.3       1 <0>        -0.1230
     23 C18         2.3234    5.3411   -0.4072 C.3       1 <0>        -0.1237
     24 C19         2.4914    3.8826    0.0136 C.3       1 <0>        -0.0923
     25 H1         -6.7013    6.7260    8.0001 H         1 <0>         0.0896
     26 H2         -5.4361    5.4571    8.1259 H         1 <0>         0.0429
     27 H3         -7.1028    5.0166    7.6212 H         1 <0>         0.0433
     28 H4         -4.5551    4.4962    6.0549 H         1 <0>         0.0527
     29 H5         -6.2218    4.0557    5.5503 H         1 <0>         0.0536
     30 H6         -6.0171    5.5500    3.5696 H         1 <0>         0.0894
     31 H7         -4.3504    5.9905    4.0742 H         1 <0>         0.0882
     32 H8         -6.5042    3.3305    2.7215 H         1 <0>         0.1419
     33 H9         -5.6346    1.3306    1.5801 H         1 <0>         0.1428
     34 H10        -1.6704    2.3729    2.7896 H         1 <0>         0.1399
     35 H11        -2.5465    4.3769    3.9190 H         1 <0>         0.1397
     36 H12         0.0021   -0.0041    0.0020 H         1 <0>         0.1420
     37 H13         2.1121    1.2542   -0.0109 H         1 <0>         0.1341
     38 H14        -2.1702    3.6608    0.0389 H         1 <0>         0.1391
     39 H15        -0.3690    5.7034   -0.9971 H         1 <0>         0.0817
     40 H16        -0.9052    5.6754    0.7171 H         1 <0>         0.0800
     41 H17         1.1798    7.0529    0.2836 H         1 <0>         0.0726
     42 H18         1.3859    5.7542    1.5074 H         1 <0>         0.0669
     43 H19         2.0481    5.3965   -1.4707 H         1 <0>         0.0683
     44 H20         3.2618    5.8908   -0.2423 H         1 <0>         0.0729
     45 H21         2.9196    3.8508    1.0263 H         1 <0>         0.0865
     46 H22         3.1756    3.3853   -0.6896 H         1 <0>         0.0837
@<TRIPOS>BOND
     1    1    2 1
     2    1   25 1
     3    1   26 1
     4    1   27 1
     5    2    3 1
     6    3    4 1
     7    3   28 1
     8    3   29 1
     9    4    5 1
    10    4   30 1
    11    4   31 1
    12    5   10 ar
    13    5    6 ar
    14    6    7 ar
    15    6   32 1
    16    7    8 ar
    17    7   33 1
    18    8    9 ar
    19    8   11 1
    20    9   10 ar
    21    9   34 1
    22   10   35 1
    23   11   12 1
    24   12   13 2
    25   12   14 2
    26   12   15 1
    27   15   20 ar
    28   15   16 ar
    29   16   17 ar
    30   16   36 1
    31   17   18 ar
    32   17   37 1
    33   18   24 1
    34   18   19 ar
    35   19   20 ar
    36   19   21 1
    37   20   38 1
    38   21   22 1
    39   21   39 1
    40   21   40 1
    41   22   23 1
    42   22   41 1
    43   22   42 1
    44   23   24 1
    45   23   43 1
    46   23   44 1
    47   24   45 1
    48   24   46 1
@<TRIPOS>MOLECULE
ZINC44445363
   45    47     0     0     0
SMALL
USER_CHARGES

@<TRIPOS>ATOM
      1 C1          1.2153   -9.5569   -6.0922 C.3       1 <0>        -0.1532
      2 C2          0.3395   -8.5321   -5.3686 C.3       1 <0>         0.0518
      3 O1          0.0098   -9.0217   -4.0672 O.3       1 <0>        -0.3121
      4 C3         -0.7679   -8.2272   -3.2888 C.ar      1 <0>         0.1603
      5 C4         -1.2096   -7.0014   -3.7729 C.ar      1 <0>        -0.2183
      6 C5         -1.9988   -6.1923   -2.9863 C.ar      1 <0>        -0.0155
      7 C6         -2.3560   -6.6055   -1.6999 C.ar      1 <0>        -0.1653
      8 C7         -1.9102   -7.8389   -1.2172 C.ar      1 <0>        -0.0428
      9 C8         -1.1253   -8.6441   -2.0119 C.ar      1 <0>        -0.1599
     10 C9         -3.2012   -5.7414   -0.8534 C.2       1 <0>         0.5818
     11 O2         -3.1719   -4.5344   -0.9965 O.2       1 <0>        -0.5167
     12 N1         -4.0056   -6.2903    0.0783 N.am      1 <0>        -0.5492
     13 C10        -4.8493   -5.4328    0.9145 C.3       1 <0>         0.1712
     14 C11        -6.1418   -5.1448    0.1952 C.2       1 <0>        -0.1438
     15 C12        -6.2732   -4.0106   -0.5840 C.2       1 <0>        -0.1372
     16 C13        -7.4493   -3.7812   -1.2176 C.2       1 <0>        -0.1742
     17 S1         -8.4201   -5.1934   -0.7172 S.3       1 <0>         0.0364
     18 C14        -7.1909   -5.9968    0.2981 C.2       1 <0>        -0.1532
     19 C15        -4.0348   -7.6729    0.2463 C.ar      1 <0>         0.3475
     20 C16        -3.6715   -8.2262    1.4693 C.ar      1 <0>        -0.1457
     21 C17        -3.7054   -9.6008    1.6226 C.ar      1 <0>        -0.0614
     22 C18        -4.1031  -10.3781    0.5430 C.ar      1 <0>        -0.1721
     23 C19        -4.4504   -9.7615   -0.6425 C.ar      1 <0>         0.1178
     24 N2         -4.4133   -8.4477   -0.7580 N.ar      1 <0>        -0.4781
     25 C20        -3.2461   -7.3406    2.6120 C.3       1 <0>        -0.1152
     26 H1          1.4669   -9.1835   -7.0849 H         1 <0>         0.0805
     27 H2          2.1303   -9.7196   -5.5226 H         1 <0>         0.0672
     28 H3          0.6728  -10.4977   -6.1846 H         1 <0>         0.0673
     29 H4          0.8821   -7.5912   -5.2761 H         1 <0>         0.0650
     30 H5         -0.5755   -8.3694   -5.9382 H         1 <0>         0.0650
     31 H6         -0.9331   -6.6828   -4.7671 H         1 <0>         0.1348
     32 H7         -2.3410   -5.2397   -3.3629 H         1 <0>         0.1349
     33 H8         -2.1841   -8.1617   -0.2236 H         1 <0>         0.1316
     34 H9         -0.7838   -9.5993   -1.6411 H         1 <0>         0.1334
     35 H10        -5.0624   -5.9396    1.8557 H         1 <0>         0.0942
     36 H11        -4.3290   -4.4964    1.1158 H         1 <0>         0.1010
     37 H12        -5.4513   -3.3175   -0.6861 H         1 <0>         0.1406
     38 H13        -7.7271   -2.9575   -1.8586 H         1 <0>         0.1856
     39 H14        -7.2645   -6.9213    0.8515 H         1 <0>         0.1787
     40 H15        -3.4284  -10.0588    2.5606 H         1 <0>         0.1416
     41 H16        -4.1402  -11.4540    0.6296 H         1 <0>         0.1409
     42 H17        -4.7601  -10.3621   -1.4850 H         1 <0>         0.1604
     43 H18        -4.1290   -6.9732    3.1350 H         1 <0>         0.0770
     44 H19        -2.6259   -7.9117    3.3029 H         1 <0>         0.0751
     45 H20        -2.6757   -6.4964    2.2245 H         1 <0>         0.0722
@<TRIPOS>BOND
     1    1    2 1
     2    1   26 1
     3    1   27 1
     4    1   28 1
     5    2    3 1
     6    2   29 1
     7    2   30 1
     8    3    4 1
     9    4    9 ar
    10    4    5 ar
    11    5    6 ar
    12    5   31 1
    13    6    7 ar
    14    6   32 1
    15    7    8 ar
    16    7   10 1
    17    8    9 ar
    18    8   33 1
    19    9   34 1
    20   10   11 2
    21   10   12 am
    22   12   13 1
    23   12   19 1
    24   13   14 1
    25   13   35 1
    26   13   36 1
    27   14   18 2
    28   14   15 1
    29   15   16 2
    30   15   37 1
    31   16   17 1
    32   16   38 1
    33   17   18 1
    34   18   39 1
    35   19   24 ar
    36   19   20 ar
    37   20   21 ar
    38   20   25 1
    39   21   22 ar
    40   21   40 1
    41   22   23 ar
    42   22   41 1
    43   23   24 ar
    44   23   42 1
    45   25   43 1
    46   25   44 1
    47   25   45 1
@<TRIPOS>MOLECULE
ZINC63537684
   41    43     0     0     0
SMALL
USER_CHARGES

@<TRIPOS>ATOM
      1 C1         -0.0187    1.5258    0.0104 C.3       1 <0>        -0.1461
      2 C2          0.0021   -0.0041    0.0020 C.3       1 <0>        -0.0175
      3 C3         -1.4117   -0.5257    0.0127 C.ar      1 <0>        -0.0934
      4 C4         -2.2583   -0.2035    1.0573 C.ar      1 <0>        -0.0645
      5 C5         -3.5547   -0.6808    1.0697 C.ar      1 <0>        -0.1324
      6 C6         -4.0069   -1.4836    0.0326 C.ar      1 <0>         0.1098
      7 C7         -3.1556   -1.8051   -1.0146 C.ar      1 <0>        -0.1886
      8 C8         -1.8618   -1.3210   -1.0249 C.ar      1 <0>        -0.0644
      9 O1         -5.2816   -1.9547    0.0427 O.3       1 <0>        -0.3200
     10 C9         -5.6786   -2.7755   -1.0576 C.3       1 <0>         0.4115
     11 F1         -5.5550   -2.0512   -2.2482 F         1 <0>        -0.1978
     12 F2         -4.8596   -3.9083   -1.1138 F         1 <0>        -0.1973
     13 S1          0.8794   -0.6050    1.4716 S.3       1 <0>        -0.2091
     14 C10         2.5819   -0.0255    1.2339 C.3       1 <0>        -0.0509
     15 C11         3.4291   -0.4633    2.4008 C.2       1 <0>         0.2282
     16 C12         4.3243   -1.5044    2.2514 C.2       1 <0>        -0.3166
     17 C13         5.1002   -1.8930    3.3496 C.2       1 <0>         0.5103
     18 O2          5.9009   -2.8093    3.2500 O.2       1 <0>        -0.5288
     19 N1          4.9498   -1.2382    4.5208 N.am      1 <0>        -0.4289
     20 C14         5.6975   -1.6043    5.5985 C.2       1 <0>         0.0985
     21 C15         5.5645   -0.9637    6.7817 C.2       1 <0>        -0.1657
     22 C16         4.6496    0.0904    6.9129 C.2       1 <0>        -0.0309
     23 C17         3.8966    0.4645    5.8405 C.2       1 <0>        -0.1352
     24 C18         4.0499   -0.2136    4.6173 C.2       1 <0>         0.3953
     25 N2          3.3185    0.1539    3.5667 N.2       1 <0>        -0.5313
     26 H1          1.0039    1.9031    0.0027 H         1 <0>         0.0609
     27 H2         -0.5459    1.8868   -0.8726 H         1 <0>         0.0689
     28 H3         -0.5289    1.8773    0.9072 H         1 <0>         0.0728
     29 H4          0.5123   -0.3556   -0.8948 H         1 <0>         0.0965
     30 H5         -1.9058    0.4215    1.8644 H         1 <0>         0.1388
     31 H6         -4.2154   -0.4294    1.8862 H         1 <0>         0.1376
     32 H7         -3.5054   -2.4299   -1.8231 H         1 <0>         0.1358
     33 H8         -1.2000   -1.5674   -1.8421 H         1 <0>         0.1307
     34 H9         -6.7159   -3.0833   -0.9256 H         1 <0>         0.1836
     35 H10         2.9845   -0.4486    0.3136 H         1 <0>         0.1042
     36 H11         2.5894    1.0624    1.1674 H         1 <0>         0.1086
     37 H12         4.4238   -2.0108    1.3027 H         1 <0>         0.1595
     38 H13         6.4044   -2.4156    5.5071 H         1 <0>         0.1827
     39 H14         6.1643   -1.2650    7.6278 H         1 <0>         0.1614
     40 H15         4.5420    0.6023    7.8578 H         1 <0>         0.1554
     41 H16         3.1882    1.2749    5.9287 H         1 <0>         0.1686
@<TRIPOS>BOND
     1    1    2 1
     2    1   26 1
     3    1   27 1
     4    1   28 1
     5    2    3 1
     6    2   13 1
     7    2   29 1
     8    3    8 ar
     9    3    4 ar
    10    4    5 ar
    11    4   30 1
    12    5    6 ar
    13    5   31 1
    14    6    7 ar
    15    6    9 1
    16    7    8 ar
    17    7   32 1
    18    8   33 1
    19    9   10 1
    20   10   11 1
    21   10   12 1
    22   10   34 1
    23   13   14 1
    24   14   15 1
    25   14   35 1
    26   14   36 1
    27   15   25 1
    28   15   16 2
    29   16   17 1
    30   16   37 1
    31   17   18 2
    32   17   19 am
    33   19   24 1
    34   19   20 1
    35   20   21 2
    36   20   38 1
    37   21   22 1
    38   21   39 1
    39   22   23 2
    40   22   40 1
    41   23   24 1
    42   23   41 1
    43   24   25 2
@<TRIPOS>MOLECULE
ZINC20189413
   46    47     0     0     0
SMALL
USER_CHARGES
N-[[(1S)-1-cyclohex-3-enyl]methyl]-1-isopropyl-piperidin-4-amine
@<TRIPOS>ATOM
      1 C1         -1.8167   -8.4552   -0.7210 C.3       1 <0>        -0.1532
      2 C2         -0.8850   -8.1773    0.4604 C.3       1 <0>         0.0777
      3 C3          0.4940   -8.7749    0.1740 C.3       1 <0>        -0.1917
      4 N1         -0.7594   -6.7265    0.6541 N.3       1 <0>        -0.5340
      5 C4          0.1296   -6.4213    1.7823 C.3       1 <0>         0.0508
      6 C5          0.1222   -4.9138    2.0459 C.3       1 <0>        -0.1371
      7 C6          0.5925   -4.1783    0.7880 C.3       1 <0>         0.0343
      8 C7         -0.3209   -4.5511   -0.3831 C.3       1 <0>        -0.1358
      9 C8         -0.3007   -6.0691   -0.5763 C.3       1 <0>         0.0439
     10 N2          0.5319   -2.7283    1.0155 N.4       1 <0>        -0.5403
     11 C9          1.4778   -2.0187    0.1440 C.3       1 <0>        -0.0031
     12 C10         1.3859   -0.5147    0.4093 C.3       1 <0>        -0.1127
     13 H1          1.5549   -0.3344    1.4812 H         1 <0>         0.0959
     14 C11         2.4405    0.2256   -0.4231 C.3       1 <0>        -0.1125
     15 C12         2.4443    1.6967   -0.0019 C.3       1 <0>        -0.0998
     16 C13         1.0439    2.2362    0.0041 C.2       1 <0>        -0.1403
     17 C14        -0.0183    1.4964    0.0103 C.2       1 <0>        -0.1720
     18 C15         0.0021   -0.0041    0.0020 C.3       1 <0>        -0.0986
     19 H2         -2.8081   -8.0255   -0.5150 H         1 <0>         0.0674
     20 H3         -1.9108   -9.5415   -0.8661 H         1 <0>         0.0688
     21 H4         -1.4010   -7.9983   -1.6312 H         1 <0>         0.0579
     22 H5         -1.3021   -8.5962    1.3881 H         1 <0>         0.0916
     23 H6          1.1638   -8.5751    1.0234 H         1 <0>         0.0580
     24 H7          0.9097   -8.3180   -0.7362 H         1 <0>         0.0581
     25 H8          0.3999   -9.8612    0.0289 H         1 <0>         0.0715
     26 H9         -0.2215   -6.9517    2.6797 H         1 <0>         0.0965
     27 H10         1.1526   -6.7459    1.5413 H         1 <0>         0.0493
     28 H11        -0.8979   -4.5913    2.3015 H         1 <0>         0.0972
     29 H12         0.7995   -4.6844    2.8817 H         1 <0>         0.0922
     30 H13         1.6397   -4.4261    0.5601 H         1 <0>         0.1291
     31 H14        -1.3476   -4.2209   -0.1668 H         1 <0>         0.0964
     32 H15         0.0375   -4.0583   -1.2989 H         1 <0>         0.0889
     33 H16         0.7243   -6.3954   -0.8061 H         1 <0>         0.0478
     34 H17        -0.9673   -6.3413   -1.4079 H         1 <0>         0.1020
     35 H18        -0.4845   -2.3658    0.8020 H         1 <0>         0.4449
     36 H19         2.5004   -2.3661    0.3530 H         1 <0>         0.1288
     37 H20         1.2297   -2.2213   -0.9083 H         1 <0>         0.1278
     38 H21         3.4297   -0.2200   -0.2417 H         1 <0>         0.0772
     39 H22         2.1905    0.1409   -1.4910 H         1 <0>         0.0771
     40 H23         2.8701    1.7878    1.0082 H         1 <0>         0.0819
     41 H24         3.0521    2.2793   -0.7099 H         1 <0>         0.0861
     42 H25         0.9508    3.3323    0.0030 H         1 <0>         0.1148
     43 H26        -1.0140    1.9638    0.0224 H         1 <0>         0.1144
     44 H27        -0.2376   -0.3623   -1.0100 H         1 <0>         0.0855
     45 H28        -0.7504   -0.3788    0.7114 H         1 <0>         0.0700
     46 H29         0.7862   -2.5106    2.0633 H         1 <0>         0.4474
@<TRIPOS>BOND
     1    1    2 1
     2    1   19 1
     3    1   20 1
     4    1   21 1
     5    2    3 1
     6    2    4 1
     7    2   22 1
     8    3   23 1
     9    3   24 1
    10    3   25 1
    11    4    9 1
    12    4    5 1
    13    5    6 1
    14    5   26 1
    15    5   27 1
    16    6    7 1
    17    6   28 1
    18    6   29 1
    19    7    8 1
    20    7   10 1
    21    7   30 1
    22    8    9 1
    23    8   31 1
    24    8   32 1
    25    9   33 1
    26    9   34 1
    27   10   11 1
    28   10   35 1
    29   10   46 1
    30   11   12 1
    31   11   36 1
    32   11   37 1
    33   12   13 1
    34   12   18 1
    35   12   14 1
    36   14   15 1
    37   14   38 1
    38   14   39 1
    39   15   16 1
    40   15   40 1
    41   15   41 1
    42   16   17 2
    43   16   42 1
    44   17   18 1
    45   17   43 1
    46   18   44 1
    47   18   45 1
@<TRIPOS>MOLECULE
ZINC36858981
   51    52     0     0     0
SMALL
USER_CHARGES

@<TRIPOS>ATOM
      1 C1         -0.0187    1.5258    0.0104 C.3       1 <0>        -0.1553
      2 C2          0.0021   -0.0041    0.0020 C.3       1 <0>         0.0368
      3 N1          0.6897   -0.4778   -1.2066 N.3       1 <0>        -0.5458
      4 C3          2.1350   -0.1721   -1.1482 C.3       1 <0>         0.0411
      5 C4          2.7985   -1.4873   -0.6690 C.3       1 <0>        -0.1526
      6 C5          1.9364   -2.5550   -1.3928 C.3       1 <0>        -0.1296
      7 C6          0.5240   -1.9335   -1.3725 C.3       1 <0>         0.0393
      8 H1         -0.0476   -2.3392   -0.5377 H         1 <0>         0.0905
      9 C7         -0.1936   -2.2288   -2.6910 C.3       1 <0>         0.0072
     10 N2         -1.4636   -1.4916   -2.7331 N.4       1 <0>        -0.5031
     11 C8         -2.1526   -1.7751   -3.9992 C.3       1 <0>         0.0225
     12 H2         -2.2714   -2.8524   -4.1148 H         1 <0>         0.1387
     13 C9         -1.3266   -1.2252   -5.1637 C.3       1 <0>        -0.1343
     14 C10        -2.0442   -1.5205   -6.4823 C.3       1 <0>        -0.0863
     15 H3         -2.1630   -2.5978   -6.5979 H         1 <0>         0.0834
     16 C11        -3.4212   -0.8535   -6.4740 C.3       1 <0>        -0.1156
     17 C12        -4.2472   -1.4035   -5.3094 C.3       1 <0>        -0.0536
     18 C13        -3.5296   -1.1082   -3.9909 C.3       1 <0>        -0.1314
     19 C14        -4.4140   -2.9157   -5.4718 C.3       1 <0>        -0.1558
     20 C15        -5.6242   -0.7365   -5.3012 C.3       1 <0>        -0.1480
     21 C16        -1.2182   -0.9706   -7.6468 C.3       1 <0>        -0.1530
     22 H4          1.0039    1.9031    0.0027 H         1 <0>         0.0633
     23 H5         -0.5459    1.8868   -0.8726 H         1 <0>         0.0623
     24 H6         -0.5289    1.8773    0.9072 H         1 <0>         0.0691
     25 H7          0.5293   -0.3651    0.8851 H         1 <0>         0.0513
     26 H8         -1.0205   -0.3814    0.0098 H         1 <0>         0.0691
     27 H9          2.5052    0.1017   -2.1361 H         1 <0>         0.0897
     28 H10         2.3246    0.6302   -0.4351 H         1 <0>         0.0844
     29 H11         3.8381   -1.5404   -0.9921 H         1 <0>         0.0892
     30 H12         2.7217   -1.5917    0.4132 H         1 <0>         0.0749
     31 H13         2.2799   -2.6977   -2.4174 H         1 <0>         0.0842
     32 H14         1.9507   -3.4975   -0.8456 H         1 <0>         0.0873
     33 H15         0.4354   -1.9169   -3.5248 H         1 <0>         0.1342
     34 H16        -0.3916   -3.2981   -2.7654 H         1 <0>         0.1317
     35 H17        -2.0458   -1.7803   -1.9613 H         1 <0>         0.4214
     36 H18        -1.2078   -0.1479   -5.0480 H         1 <0>         0.0878
     37 H19        -0.3456   -1.7003   -5.1696 H         1 <0>         0.0860
     38 H20        -3.3024    0.2238   -6.3583 H         1 <0>         0.0713
     39 H21        -3.9324   -1.0639   -7.4134 H         1 <0>         0.0792
     40 H22        -4.1180   -1.4999   -3.1612 H         1 <0>         0.0867
     41 H23        -3.4108   -0.0309   -3.8752 H         1 <0>         0.0876
     42 H24        -3.4330   -3.3908   -5.4777 H         1 <0>         0.0568
     43 H25        -5.0025   -3.3074   -4.6422 H         1 <0>         0.0611
     44 H26        -4.9252   -3.1260   -6.4112 H         1 <0>         0.0691
     45 H27        -6.1354   -0.9469   -6.2405 H         1 <0>         0.0673
     46 H28        -6.2127   -1.1283   -4.4715 H         1 <0>         0.0608
     47 H29        -5.5054    0.3408   -5.1855 H         1 <0>         0.0605
     48 H30        -0.2372   -1.4457   -7.6527 H         1 <0>         0.0597
     49 H31        -1.7294   -1.1809   -8.5862 H         1 <0>         0.0667
     50 H32        -1.0994    0.1067   -7.5311 H         1 <0>         0.0598
     51 H33        -1.2803   -0.5018   -2.6643 H         1 <0>         0.4323
@<TRIPOS>BOND
     1    1    2 1
     2    1   22 1
     3    1   23 1
     4    1   24 1
     5    2    3 1
     6    2   25 1
     7    2   26 1
     8    3    7 1
     9    3    4 1
    10    4    5 1
    11    4   27 1
    12    4   28 1
    13    5    6 1
    14    5   29 1
    15    5   30 1
    16    6    7 1
    17    6   31 1
    18    6   32 1
    19    7    8 1
    20    7    9 1
    21    9   10 1
    22    9   33 1
    23    9   34 1
    24   10   11 1
    25   10   35 1
    26   10   51 1
    27   11   12 1
    28   11   18 1
    29   11   13 1
    30   13   14 1
    31   13   36 1
    32   13   37 1
    33   14   15 1
    34   14   16 1
    35   14   21 1
    36   16   17 1
    37   16   38 1
    38   16   39 1
    39   17   18 1
    40   17   19 1
    41   17   20 1
    42   18   40 1
    43   18   41 1
    44   19   42 1
    45   19   43 1
    46   19   44 1
    47   20   45 1
    48   20   46 1
    49   20   47 1
    50   21   48 1
    51   21   49 1
    52   21   50 1
@<TRIPOS>MOLECULE
ZINC40996605
   33    34     0     0     0
SMALL
USER_CHARGES

@<TRIPOS>ATOM
      1 C1         -0.0187    1.5258    0.0104 C.3       1 <0>        -0.1903
      2 C2          0.0021   -0.0041    0.0020 C.3       1 <0>        -0.0103
      3 N1         -1.3761   -0.5125    0.0124 N.4       1 <0>        -0.5127
      4 C3         -1.3562   -1.9814    0.0044 C.3       1 <0>         0.1103
      5 C4         -2.7700   -2.5030    0.0151 C.2       1 <0>        -0.3213
      6 C5         -3.5925   -2.8031   -1.0250 C.2       1 <0>         0.1161
      7 N2         -4.8038   -3.2512   -0.7925 N.2       1 <0>        -0.5138
      8 C6         -5.2496   -3.4201    0.4443 C.2       1 <0>         0.2308
      9 S1         -3.8281   -2.9063    1.3994 S.3       1 <0>         0.0514
     10 C7         -6.5660   -3.9078    0.9091 C.ar      1 <0>        -0.0633
     11 C8         -6.8349   -4.0051    2.2751 C.ar      1 <0>        -0.0749
     12 C9         -8.0649   -4.4608    2.7021 C.ar      1 <0>        -0.1263
     13 C10        -9.0310   -4.8211    1.7793 C.ar      1 <0>        -0.0708
     14 C11        -8.7708   -4.7270    0.4240 C.ar      1 <0>        -0.1262
     15 C12        -7.5465   -4.2672   -0.0162 C.ar      1 <0>        -0.0143
     16 C13        -7.2669   -4.1594   -1.4931 C.3       1 <0>        -0.1359
     17 H1          1.0039    1.9031    0.0027 H         1 <0>         0.1084
     18 H2         -0.5459    1.8868   -0.8726 H         1 <0>         0.0812
     19 H3         -0.5289    1.8773    0.9072 H         1 <0>         0.0806
     20 H4          0.5123   -0.3556   -0.8948 H         1 <0>         0.1337
     21 H5          0.5293   -0.3651    0.8851 H         1 <0>         0.1323
     22 H6         -1.8484   -0.1871    0.8426 H         1 <0>         0.4274
     23 H7         -0.8460   -2.3329   -0.8924 H         1 <0>         0.1513
     24 H8         -0.8290   -2.3425    0.8874 H         1 <0>         0.1423
     25 H9         -3.2497   -2.6727   -2.0408 H         1 <0>         0.1762
     26 H10        -6.0815   -3.7245    2.9963 H         1 <0>         0.1276
     27 H11        -8.2741   -4.5369    3.7589 H         1 <0>         0.1382
     28 H12        -9.9923   -5.1777    2.1187 H         1 <0>         0.1373
     29 H13        -9.5291   -5.0098   -0.2912 H         1 <0>         0.1384
     30 H14        -6.8433   -5.0974   -1.8522 H         1 <0>         0.0780
     31 H15        -8.1959   -3.9532   -2.0247 H         1 <0>         0.0699
     32 H16        -6.5592   -3.3496   -1.6708 H         1 <0>         0.1000
     33 H17        -1.8641   -0.1783   -0.8050 H         1 <0>         0.4288
@<TRIPOS>BOND
     1    1    2 1
     2    1   17 1
     3    1   18 1
     4    1   19 1
     5    2    3 1
     6    2   20 1
     7    2   21 1
     8    3    4 1
     9    3   22 1
    10    3   33 1
    11    4    5 1
    12    4   23 1
    13    4   24 1
    14    5    9 1
    15    5    6 2
    16    6    7 1
    17    6   25 1
    18    7    8 2
    19    8    9 1
    20    8   10 1
    21   10   15 ar
    22   10   11 ar
    23   11   12 ar
    24   11   26 1
    25   12   13 ar
    26   12   27 1
    27   13   14 ar
    28   13   28 1
    29   14   15 ar
    30   14   29 1
    31   15   16 1
    32   16   30 1
    33   16   31 1
    34   16   32 1
@<TRIPOS>MOLECULE
ZINC51815922
   32    33     0     0     0
SMALL
USER_CHARGES

@<TRIPOS>ATOM
      1 C1         -0.0163    1.3509    0.0095 C.2       1 <0>        -0.1134
      2 C2          1.1836    2.0381    0.0017 C.2       1 <0>        -0.1517
      3 C3          2.3434    1.3347   -0.0131 C.2       1 <0>        -0.1042
      4 S1          1.7533   -0.3502   -0.0166 S.3       1 <0>         0.1204
      5 C4          0.0021   -0.0041    0.0020 C.2       1 <0>        -0.1760
      6 C5         -1.1557   -0.9687    0.0079 C.3       1 <0>         0.1562
      7 O1         -1.5346   -1.2663   -1.3374 O.3       1 <0>        -0.3918
      8 C6         -2.6301   -2.1776   -1.4447 C.3       1 <0>         0.0326
      9 C7         -2.9473   -2.4222   -2.9214 C.3       1 <0>         0.0373
     10 H1         -3.7227   -3.1836   -3.0046 H         1 <0>         0.1504
     11 C8         -1.6845   -2.9001   -3.6413 C.3       1 <0>        -0.1389
     12 C9         -2.0069   -3.1438   -5.1184 C.3       1 <0>        -0.1393
     13 C10        -2.5698   -1.8562   -5.7270 C.3       1 <0>        -0.1488
     14 C11        -3.7998   -1.4169   -4.9298 C.3       1 <0>        -0.0063
     15 N1         -3.4201   -1.1743   -3.5328 N.4       1 <0>        -0.5035
     16 Cl1         3.9774    1.9208   -0.0256 Cl        1 <0>         0.0326
     17 H2         -0.9542    1.8861    0.0257 H         1 <0>         0.1422
     18 H3          1.1971    3.1180    0.0070 H         1 <0>         0.1481
     19 H4         -0.8604   -1.8878    0.5140 H         1 <0>         0.0791
     20 H5         -1.9996   -0.5203    0.5322 H         1 <0>         0.0851
     21 H6         -2.3653   -3.1217   -0.9688 H         1 <0>         0.1005
     22 H7         -3.5045   -1.7542   -0.9505 H         1 <0>         0.0788
     23 H8         -0.9084   -2.1392   -3.5589 H         1 <0>         0.0985
     24 H9         -1.3355   -3.8275   -3.1871 H         1 <0>         0.1102
     25 H10        -1.0979   -3.4301   -5.6475 H         1 <0>         0.0954
     26 H11        -2.7458   -3.9406   -5.2036 H         1 <0>         0.0814
     27 H12        -1.8121   -1.0736   -5.6879 H         1 <0>         0.0888
     28 H13        -2.8536   -2.0374   -6.7637 H         1 <0>         0.1124
     29 H14        -4.2031   -0.5005   -5.3606 H         1 <0>         0.1337
     30 H15        -4.5569   -2.2000   -4.9698 H         1 <0>         0.1303
     31 H16        -4.2209   -0.8333   -3.0225 H         1 <0>         0.4275
     32 H17        -2.6842   -0.4848   -3.4997 H         1 <0>         0.4326
@<TRIPOS>BOND
     1    1    5 2
     2    1    2 1
     3    1   17 1
     4    2    3 2
     5    2   18 1
     6    3    4 1
     7    3   16 1
     8    4    5 1
     9    5    6 1
    10    6    7 1
    11    6   19 1
    12    6   20 1
    13    7    8 1
    14    8    9 1
    15    8   21 1
    16    8   22 1
    17    9   10 1
    18    9   15 1
    19    9   11 1
    20   11   12 1
    21   11   23 1
    22   11   24 1
    23   12   13 1
    24   12   25 1
    25   12   26 1
    26   13   14 1
    27   13   27 1
    28   13   28 1
    29   14   15 1
    30   14   29 1
    31   14   30 1
    32   15   31 1
    33   15   32 1
@<TRIPOS>MOLECULE
ZINC61819868
   48    49     0     0     0
SMALL
USER_CHARGES

@<TRIPOS>ATOM
      1 C1         -1.0848    1.2451   -0.4589 C.3       1 <0>        -0.1566
      2 C2         -0.5984   -0.1910   -0.2539 C.3       1 <0>        -0.1233
      3 C3          0.1534   -0.6578   -1.5020 C.3       1 <0>         0.0523
      4 N1          0.6205   -2.0366   -1.3052 N.3       1 <0>        -0.6866
      5 C4          1.3484   -2.5195   -2.4863 C.3       1 <0>         0.0621
      6 H1          2.0674   -1.7687   -2.8141 H         1 <0>         0.0837
      7 C5          0.3572   -2.8350   -3.6255 C.3       1 <0>        -0.1195
      8 C6          0.9498   -4.0933   -4.3070 C.3       1 <0>        -0.1219
      9 C7          1.4969   -4.9061   -3.1074 C.3       1 <0>        -0.1444
     10 C8          2.0741   -3.8357   -2.1565 C.3       1 <0>         0.0236
     11 H2          3.1451   -3.7240   -2.3251 H         1 <0>         0.1392
     12 N2          1.8207   -4.2137   -0.7597 N.4       1 <0>        -0.3701
     13 C9          0.3989   -4.5374   -0.5922 C.3       1 <0>        -0.0403
     14 C10         0.1136   -4.8534    0.8776 C.3       1 <0>        -0.1310
     15 C11         0.9657   -6.0495    1.3117 C.3       1 <0>        -0.0752
     16 C12         2.4423   -5.7288    1.0631 C.3       1 <0>        -0.1352
     17 C13         2.6414   -5.3804   -0.4136 C.3       1 <0>        -0.0125
     18 C14         0.5664   -7.2835    0.5001 C.3       1 <0>        -0.1552
     19 C15         0.7449   -6.3213    2.8011 C.3       1 <0>        -0.1471
     20 H3         -0.2290    1.8973   -0.6328 H         1 <0>         0.0563
     21 H4         -1.7517    1.2833   -1.3203 H         1 <0>         0.0595
     22 H5         -1.6204    1.5777    0.4303 H         1 <0>         0.0638
     23 H6          0.0685   -0.2292    0.6074 H         1 <0>         0.0607
     24 H7         -1.4542   -0.8432   -0.0801 H         1 <0>         0.0738
     25 H8         -0.5135   -0.6196   -2.3634 H         1 <0>         0.0885
     26 H9          1.0092   -0.0056   -1.6759 H         1 <0>         0.0460
     27 H10         1.1888   -2.1108   -0.4748 H         1 <0>         0.3248
     28 H11        -0.6321   -3.0500   -3.2217 H         1 <0>         0.0896
     29 H12         0.3103   -2.0054   -4.3310 H         1 <0>         0.0844
     30 H13         0.1731   -4.6515   -4.8298 H         1 <0>         0.0911
     31 H14         1.7557   -3.8203   -4.9883 H         1 <0>         0.0828
     32 H15         0.6916   -5.4557   -2.6199 H         1 <0>         0.0949
     33 H16         2.2817   -5.5880   -3.4348 H         1 <0>         0.0962
     34 H17        -0.2063   -3.6864   -0.9046 H         1 <0>         0.1761
     35 H18         0.1494   -5.4039   -1.2047 H         1 <0>         0.1253
     36 H19         0.3625   -3.9874    1.4910 H         1 <0>         0.0845
     37 H20        -0.9422   -5.0952    0.9996 H         1 <0>         0.1091
     38 H21         2.7396   -4.8810    1.6803 H         1 <0>         0.0866
     39 H22         3.0511   -6.5964    1.3176 H         1 <0>         0.1106
     40 H23         2.3441   -6.2289   -1.0299 H         1 <0>         0.1292
     41 H24         3.6917   -5.1517   -0.5941 H         1 <0>         0.1259
     42 H25         0.7278   -7.0888   -0.5602 H         1 <0>         0.0514
     43 H26         1.1735   -8.1341    0.8098 H         1 <0>         0.0693
     44 H27        -0.4865   -7.5066    0.6723 H         1 <0>         0.0704
     45 H28        -0.3077   -6.5425    2.9779 H         1 <0>         0.0672
     46 H29         1.3518   -7.1727    3.1089 H         1 <0>         0.0661
     47 H30         1.0332   -5.4422    3.3775 H         1 <0>         0.0616
     48 H31         2.0617   -3.4429   -0.1548 H         1 <0>         0.4125
@<TRIPOS>BOND
     1    1    2 1
     2    1   20 1
     3    1   21 1
     4    1   22 1
     5    2    3 1
     6    2   23 1
     7    2   24 1
     8    3    4 1
     9    3   25 1
    10    3   26 1
    11    4    5 1
    12    4   27 1
    13    5    6 1
    14    5   10 1
    15    5    7 1
    16    7    8 1
    17    7   28 1
    18    7   29 1
    19    8    9 1
    20    8   30 1
    21    8   31 1
    22    9   10 1
    23    9   32 1
    24    9   33 1
    25   10   11 1
    26   10   12 1
    27   12   17 1
    28   12   13 1
    29   12   48 1
    30   13   14 1
    31   13   34 1
    32   13   35 1
    33   14   15 1
    34   14   36 1
    35   14   37 1
    36   15   16 1
    37   15   18 1
    38   15   19 1
    39   16   17 1
    40   16   38 1
    41   16   39 1
    42   17   40 1
    43   17   41 1
    44   18   42 1
    45   18   43 1
    46   18   44 1
    47   19   45 1
    48   19   46 1
    49   19   47 1
@<TRIPOS>MOLECULE
ZINC07115918
   36    38     0     0     0
SMALL
USER_CHARGES
2-methoxy-N-(2-quinolylmethyl)aniline
@<TRIPOS>ATOM
      1 C1         -6.3340   -0.4727   -5.2233 C.3       1 <0>         0.0320
      2 O1         -5.9144   -0.0916   -3.9115 O.3       1 <0>        -0.3238
      3 C2         -6.7011   -0.4832   -2.8734 C.ar      1 <0>         0.0539
      4 C3         -7.8506   -1.2180   -3.1122 C.ar      1 <0>        -0.1623
      5 C4         -8.6490   -1.6162   -2.0557 C.ar      1 <0>        -0.1406
      6 C5         -8.3034   -1.2830   -0.7592 C.ar      1 <0>        -0.1048
      7 C6         -7.1553   -0.5541   -0.5120 C.ar      1 <0>        -0.1685
      8 C7         -6.3523   -0.1466   -1.5673 C.ar      1 <0>         0.1968
      9 N1         -5.1918    0.5958   -1.3200 N.pl3     1 <0>        -0.7369
     10 C8         -4.8270    0.9487    0.0542 C.3       1 <0>         0.1786
     11 C9         -3.5459    1.7423    0.0458 C.ar      1 <0>         0.1408
     12 C10        -3.6103    3.1341    0.0531 C.ar      1 <0>        -0.1591
     13 C11        -2.4595    3.8697    0.0456 C.ar      1 <0>        -0.0558
     14 C12        -1.2315    3.1816    0.0306 C.ar      1 <0>        -0.0991
     15 C13        -0.0076    3.8701    0.0221 C.ar      1 <0>        -0.0984
     16 C14         1.1589    3.1683    0.0076 C.ar      1 <0>        -0.1118
     17 C15         1.1549    1.7747    0.0006 C.ar      1 <0>        -0.1003
     18 C16        -0.0126    1.0758    0.0080 C.ar      1 <0>        -0.0905
     19 C17        -1.2381    1.7649    0.0175 C.ar      1 <0>         0.1259
     20 N2         -2.4005    1.1049    0.0322 N.ar      1 <0>        -0.4546
     21 H1         -7.3185   -0.0512   -5.4266 H         1 <0>         0.0536
     22 H2         -5.6198   -0.0979   -5.9565 H         1 <0>         0.0972
     23 H3         -6.3839   -1.5597   -5.2874 H         1 <0>         0.0537
     24 H4         -8.1233   -1.4803   -4.1238 H         1 <0>         0.1264
     25 H5         -9.5448   -2.1894   -2.2439 H         1 <0>         0.1209
     26 H6         -8.9299   -1.5965    0.0628 H         1 <0>         0.1230
     27 H7         -6.8855   -0.2987    0.5021 H         1 <0>         0.1278
     28 H8         -4.6292    0.8766   -2.0585 H         1 <0>         0.4056
     29 H9         -4.6869    0.0389    0.6380 H         1 <0>         0.0790
     30 H10        -5.6221    1.5470    0.4990 H         1 <0>         0.0780
     31 H11        -4.5692    3.6308    0.0650 H         1 <0>         0.1403
     32 H12        -2.4908    4.9492    0.0508 H         1 <0>         0.1423
     33 H13         0.0083    4.9499    0.0275 H         1 <0>         0.1318
     34 H14         2.0998    3.6985    0.0011 H         1 <0>         0.1299
     35 H15         2.0937    1.2408   -0.0113 H         1 <0>         0.1322
     36 H16         0.0021   -0.0041    0.0020 H         1 <0>         0.1368
@<TRIPOS>BOND
     1    1    2 1
     2    1   21 1
     3    1   22 1
     4    1   23 1
     5    2    3 1
     6    3    8 ar
     7    3    4 ar
     8    4    5 ar
     9    4   24 1
    10    5    6 ar
    11    5   25 1
    12    6    7 ar
    13    6   26 1
    14    7    8 ar
    15    7   27 1
    16    8    9 1
    17    9   10 1
    18    9   28 1
    19   10   11 1
    20   10   29 1
    21   10   30 1
    22   11   20 ar
    23   11   12 ar
    24   12   13 ar
    25   12   31 1
    26   13   14 ar
    27   13   32 1
    28   14   19 ar
    29   14   15 ar
    30   15   16 ar
    31   15   33 1
    32   16   17 ar
    33   16   34 1
    34   17   18 ar
    35   17   35 1
    36   18   19 ar
    37   18   36 1
    38   19   20 ar
@<TRIPOS>MOLECULE
ZINC37070618
   33    34     0     0     0
SMALL
USER_CHARGES

@<TRIPOS>ATOM
      1 C1         -0.0184    1.5028    0.0103 C.3       1 <0>        -0.0732
      2 C2          0.0021   -0.0041    0.0020 C.2       1 <0>        -0.1346
      3 C3         -1.0392   -0.8719    0.0017 C.2       1 <0>        -0.1661
      4 C4         -0.7802   -2.2296   -0.0075 C.2       1 <0>        -0.1368
      5 C5          0.5074   -2.6532   -0.0160 C.2       1 <0>        -0.1638
      6 S1          1.4039   -1.1093   -0.0179 S.3       1 <0>         0.0456
      7 C6          1.0430   -4.0617   -0.0269 C.3       1 <0>         0.2387
      8 H1          0.2679   -4.7425   -0.3788 H         1 <0>         0.0983
      9 C7          1.4651   -4.4578    1.3894 C.3       1 <0>        -0.1667
     10 N1          2.2014   -4.1368   -0.9206 N.pl3     1 <0>        -0.7324
     11 C8          2.5523   -5.3566   -1.5106 C.ar      1 <0>         0.1616
     12 C9          1.8058   -6.5016   -1.2606 C.ar      1 <0>        -0.1358
     13 C10         2.1920   -7.6876   -1.8686 C.ar      1 <0>        -0.1550
     14 C11         3.2967   -7.6950   -2.6967 C.ar      1 <0>         0.0740
     15 N2          3.9881   -6.5922   -2.9169 N.ar      1 <0>        -0.5020
     16 C12         3.6533   -5.4401   -2.3633 C.ar      1 <0>         0.2587
     17 O1          4.3900   -4.3293   -2.6225 O.3       1 <0>        -0.3157
     18 C13         5.5046   -4.4812   -3.5037 C.3       1 <0>         0.0450
     19 H2          1.0042    1.8801    0.0026 H         1 <0>         0.0734
     20 H3         -0.5455    1.8639   -0.8728 H         1 <0>         0.0823
     21 H4         -0.5286    1.8543    0.9071 H         1 <0>         0.0827
     22 H5         -2.0560   -0.5079    0.0090 H         1 <0>         0.1349
     23 H6         -1.5916   -2.9424   -0.0076 H         1 <0>         0.1341
     24 H7          2.2402   -3.7770    1.7413 H         1 <0>         0.0636
     25 H8          0.6032   -4.4019    2.0544 H         1 <0>         0.0708
     26 H9          1.8525   -5.4765    1.3816 H         1 <0>         0.0685
     27 H10         2.7253   -3.3411   -1.1034 H         1 <0>         0.4074
     28 H11         0.9457   -6.4694   -0.6083 H         1 <0>         0.1395
     29 H12         1.6342   -8.5960   -1.6955 H         1 <0>         0.1371
     30 H13         3.5998   -8.6167   -3.1710 H         1 <0>         0.1568
     31 H14         6.2035   -5.2048   -3.0842 H         1 <0>         0.0576
     32 H15         5.1553   -4.8339   -4.4741 H         1 <0>         0.0573
     33 H16         6.0053   -3.5206   -3.6251 H         1 <0>         0.0944
@<TRIPOS>BOND
     1    1    2 1
     2    1   19 1
     3    1   20 1
     4    1   21 1
     5    2    6 1
     6    2    3 2
     7    3    4 1
     8    3   22 1
     9    4    5 2
    10    4   23 1
    11    5    6 1
    12    5    7 1
    13    7    8 1
    14    7    9 1
    15    7   10 1
    16    9   24 1
    17    9   25 1
    18    9   26 1
    19   10   11 1
    20   10   27 1
    21   11   16 ar
    22   11   12 ar
    23   12   13 ar
    24   12   28 1
    25   13   14 ar
    26   13   29 1
    27   14   15 ar
    28   14   30 1
    29   15   16 ar
    30   16   17 1
    31   17   18 1
    32   18   31 1
    33   18   32 1
    34   18   33 1
@<TRIPOS>MOLECULE
ZINC43436431
   40    41     0     0     0
SMALL
USER_CHARGES

@<TRIPOS>ATOM
      1 C1         -0.4082    0.5527   -0.4161 C.3       1 <0>        -0.1638
      2 C2         -0.6319   -0.9568   -0.5271 C.3       1 <0>        -0.0637
      3 C3         -0.2449   -1.6281    0.7922 C.3       1 <0>        -0.1604
      4 C4         -2.1067   -1.2331   -0.8265 C.3       1 <0>        -0.1354
      5 C5          0.2320   -1.5187   -1.6579 C.3       1 <0>        -0.1163
      6 C6          1.6638   -0.9994   -1.5121 C.3       1 <0>         0.1738
      7 C7          1.6901    0.5065   -1.7812 C.3       1 <0>        -0.1854
      8 C8          2.1631   -1.2725   -0.0919 C.3       1 <0>        -0.1885
      9 N1          2.5314   -1.6827   -2.4747 N.pl3     1 <0>        -0.4778
     10 C9          3.8946   -1.5451   -2.5670 C.2       1 <0>         0.3143
     11 N2          4.3262   -2.2964   -3.5282 N.2       1 <0>        -0.2816
     12 N3          3.2261   -2.9546   -4.0952 N.pl3     1 <0>        -0.4738
     13 C10         2.1286   -2.5583   -3.4172 C.2       1 <0>         0.4701
     14 S1          0.5203   -3.0701   -3.7042 S.2       1 <0>        -0.5701
     15 C11         4.7481   -0.6632   -1.6924 C.3       1 <0>        -0.1142
     16 C12         5.8618    0.1379   -2.3699 C.3       1 <0>        -0.1468
     17 C13         6.2103   -1.0675   -1.4944 C.3       1 <0>        -0.1455
     18 H1          0.5063    0.7441    0.1452 H         1 <0>         0.0631
     19 H2         -0.3182    0.9810   -1.4144 H         1 <0>         0.0677
     20 H3         -1.2533    1.0083    0.0998 H         1 <0>         0.0523
     21 H4         -1.0817   -1.5706    1.4883 H         1 <0>         0.0520
     22 H5          0.0040   -2.6733    0.6087 H         1 <0>         0.0575
     23 H6          0.6188   -1.1185    1.2194 H         1 <0>         0.0685
     24 H7         -2.3825   -0.7549   -1.7663 H         1 <0>         0.0555
     25 H8         -2.2661   -2.3085   -0.9055 H         1 <0>         0.0570
     26 H9         -2.7222   -0.8328   -0.0208 H         1 <0>         0.0530
     27 H10         0.2335   -2.6075   -1.6074 H         1 <0>         0.1033
     28 H11        -0.1740   -1.2000   -2.6180 H         1 <0>         0.0982
     29 H12         1.4708    1.0443   -0.8588 H         1 <0>         0.1061
     30 H13         2.6772    0.7937   -2.1434 H         1 <0>         0.0573
     31 H14         0.9409    0.7544   -2.5331 H         1 <0>         0.0750
     32 H15         1.6325   -2.1304    0.3211 H         1 <0>         0.0938
     33 H16         3.2321   -1.4842   -0.1170 H         1 <0>         0.0633
     34 H17         1.9806   -0.3976    0.5320 H         1 <0>         0.0883
     35 H18         3.2498   -3.5814   -4.8350 H         1 <0>         0.4677
     36 H19         4.2355   -0.1996   -0.8495 H         1 <0>         0.1438
     37 H20         5.9771    0.0270   -3.4481 H         1 <0>         0.1060
     38 H21         6.0820    1.1288   -1.9727 H         1 <0>         0.1137
     39 H22         6.6599   -0.8697   -0.5214 H         1 <0>         0.1135
     40 H23         6.5550   -1.9714   -1.9967 H         1 <0>         0.1087
@<TRIPOS>BOND
     1    1    2 1
     2    1   18 1
     3    1   19 1
     4    1   20 1
     5    2    3 1
     6    2    4 1
     7    2    5 1
     8    3   21 1
     9    3   22 1
    10    3   23 1
    11    4   24 1
    12    4   25 1
    13    4   26 1
    14    5    6 1
    15    5   27 1
    16    5   28 1
    17    6    7 1
    18    6    8 1
    19    6    9 1
    20    7   29 1
    21    7   30 1
    22    7   31 1
    23    8   32 1
    24    8   33 1
    25    8   34 1
    26    9   13 1
    27    9   10 1
    28   10   15 1
    29   10   11 2
    30   11   12 1
    31   12   13 1
    32   12   35 1
    33   13   14 2
    34   15   17 1
    35   15   16 1
    36   15   36 1
    37   16   17 1
    38   16   37 1
    39   16   38 1
    40   17   39 1
    41   17   40 1
@<TRIPOS>MOLECULE
ZINC49850211
   34    35     0     0     0
SMALL
USER_CHARGES

@<TRIPOS>ATOM
      1 C1         -0.0173    1.4248    0.0099 C.3       1 <0>         0.0247
      2 O1          0.0021   -0.0041    0.0020 O.3       1 <0>        -0.3049
      3 C2         -1.2009   -0.6378    0.0101 C.ar      1 <0>         0.1072
      4 C3         -2.3733    0.1025    0.0195 C.ar      1 <0>        -0.1725
      5 C4         -3.5962   -0.5370    0.0282 C.ar      1 <0>        -0.0953
      6 C5         -3.6550   -1.9294    0.0270 C.ar      1 <0>        -0.0521
      7 C6         -2.4773   -2.6745    0.0171 C.ar      1 <0>        -0.1508
      8 C7         -1.2537   -2.0292    0.0031 C.ar      1 <0>         0.1017
      9 O2         -0.1028   -2.7536   -0.0122 O.3       1 <0>        -0.3046
     10 C8         -0.2320   -4.1767   -0.0186 C.3       1 <0>         0.0247
     11 C9         -4.9693   -2.6174    0.0369 C.ar      1 <0>        -0.0769
     12 C10        -5.9429   -2.2527    0.9646 C.ar      1 <0>        -0.0578
     13 C11        -7.1640   -2.8956    0.9691 C.ar      1 <0>        -0.1023
     14 C12        -7.4237   -3.9014    0.0553 C.ar      1 <0>        -0.0684
     15 C13        -6.4628   -4.2691   -0.8684 C.ar      1 <0>        -0.1535
     16 C14        -5.2376   -3.6285   -0.8867 C.ar      1 <0>         0.1147
     17 F1         -4.3009   -3.9840   -1.7930 F         1 <0>        -0.1322
     18 C15        -8.2171   -2.5014    1.9724 C.3       1 <0>         0.1173
     19 O3         -9.0334   -1.4647    1.4237 O.3       1 <0>        -0.5675
     20 H1          1.0053    1.8021    0.0021 H         1 <0>         0.1022
     21 H2         -0.5445    1.7859   -0.8732 H         1 <0>         0.0562
     22 H3         -0.5275    1.7763    0.9067 H         1 <0>         0.0561
     23 H4         -2.3294    1.1816    0.0205 H         1 <0>         0.1399
     24 H5         -4.5080    0.0418    0.0363 H         1 <0>         0.1313
     25 H6         -2.5199   -3.7537    0.0165 H         1 <0>         0.1367
     26 H7         -0.7677   -4.4969    0.8751 H         1 <0>         0.0547
     27 H8         -0.7854   -4.4874   -0.9048 H         1 <0>         0.0563
     28 H9          0.7586   -4.6314   -0.0308 H         1 <0>         0.1028
     29 H10        -5.7420   -1.4683    1.6793 H         1 <0>         0.1358
     30 H11        -8.3808   -4.4017    0.0638 H         1 <0>         0.1355
     31 H12        -6.6711   -5.0549   -1.5794 H         1 <0>         0.1407
     32 H13        -8.8374   -3.3665    2.2070 H         1 <0>         0.0587
     33 H14        -7.7360   -2.1419    2.8820 H         1 <0>         0.0581
     34 H15        -9.7345   -1.1609    2.0164 H         1 <0>         0.3836
@<TRIPOS>BOND
     1    1    2 1
     2    1   20 1
     3    1   21 1
     4    1   22 1
     5    2    3 1
     6    3    8 ar
     7    3    4 ar
     8    4    5 ar
     9    4   23 1
    10    5    6 ar
    11    5   24 1
    12    6    7 ar
    13    6   11 1
    14    7    8 ar
    15    7   25 1
    16    8    9 1
    17    9   10 1
    18   10   26 1
    19   10   27 1
    20   10   28 1
    21   11   16 ar
    22   11   12 ar
    23   12   13 ar
    24   12   29 1
    25   13   14 ar
    26   13   18 1
    27   14   15 ar
    28   14   30 1
    29   15   16 ar
    30   15   31 1
    31   16   17 1
    32   18   19 1
    33   18   32 1
    34   18   33 1
    35   19   34 1
@<TRIPOS>MOLECULE
ZINC61443495
   33    34     0     0     0
SMALL
USER_CHARGES

@<TRIPOS>ATOM
      1 C1          0.6725    1.5736    0.5654 C.3       1 <0>        -0.0700
      2 C2          0.5088    0.0819    0.4273 C.2       1 <0>        -0.1543
      3 C3         -0.6284   -0.6558    0.4294 C.2       1 <0>        -0.1649
      4 C4         -0.5377   -2.0276    0.2855 C.2       1 <0>        -0.1489
      5 C5          0.6857   -2.5945    0.1464 C.2       1 <0>        -0.1271
      6 S1          1.7616   -1.1713    0.2104 S.3       1 <0>         0.0690
      7 C6          1.0442   -4.0483   -0.0237 C.3       1 <0>         0.2268
      8 H1          0.1961   -4.6681    0.2672 H         1 <0>         0.0810
      9 C7          1.3899   -4.3150   -1.4661 C.ar      1 <0>        -0.1644
     10 C8          2.7055   -4.2625   -1.8932 C.ar      1 <0>        -0.0252
     11 C9          2.9778   -4.5149   -3.2305 C.ar      1 <0>        -0.2091
     12 C10         1.9361   -4.8086   -4.0883 C.ar      1 <0>         0.1424
     13 N1          0.6919   -4.8508   -3.6515 N.ar      1 <0>        -0.5384
     14 C11         0.3934   -4.6223   -2.3833 C.ar      1 <0>         0.3334
     15 O1         -0.8994   -4.6827   -1.9759 O.3       1 <0>        -0.3047
     16 C12        -1.8776   -5.0036   -2.9669 C.3       1 <0>         0.0395
     17 N2          2.1997   -4.3702    0.8243 N.3       1 <0>        -0.6867
     18 C13         1.7776   -4.6599    2.2013 C.3       1 <0>         0.0275
     19 H2          1.7309    1.8292    0.5149 H         1 <0>         0.0714
     20 H3          0.1388    2.0741   -0.2425 H         1 <0>         0.0786
     21 H4          0.2661    1.8965    1.5240 H         1 <0>         0.0792
     22 H5         -1.5908   -0.1790    0.5423 H         1 <0>         0.1288
     23 H6         -1.4282   -2.6386    0.2842 H         1 <0>         0.1293
     24 H7          3.5018   -4.0301   -1.2018 H         1 <0>         0.1503
     25 H8          3.9933   -4.4817   -3.5964 H         1 <0>         0.1411
     26 H9          2.1426   -5.0058   -5.1298 H         1 <0>         0.1615
     27 H10        -1.6578   -5.9836   -3.3905 H         1 <0>         0.0595
     28 H11        -2.8668   -5.0190   -2.5094 H         1 <0>         0.0972
     29 H12        -1.8543   -4.2529   -3.7569 H         1 <0>         0.0599
     30 H13         2.7282   -5.1385    0.4389 H         1 <0>         0.3486
     31 H14         2.6418   -4.9712    2.7883 H         1 <0>         0.0733
     32 H15         1.3414   -3.7643    2.6436 H         1 <0>         0.0680
     33 H16         1.0366   -5.4593    2.1936 H         1 <0>         0.0273
@<TRIPOS>BOND
     1    1    2 1
     2    1   19 1
     3    1   20 1
     4    1   21 1
     5    2    6 1
     6    2    3 2
     7    3    4 1
     8    3   22 1
     9    4    5 2
    10    4   23 1
    11    5    6 1
    12    5    7 1
    13    7    8 1
    14    7    9 1
    15    7   17 1
    16    9   14 ar
    17    9   10 ar
    18   10   11 ar
    19   10   24 1
    20   11   12 ar
    21   11   25 1
    22   12   13 ar
    23   12   26 1
    24   13   14 ar
    25   14   15 1
    26   15   16 1
    27   16   27 1
    28   16   28 1
    29   16   29 1
    30   17   18 1
    31   17   30 1
    32   18   31 1
    33   18   32 1
    34   18   33 1
@<TRIPOS>MOLECULE
ZINC02019563
   25    26     0     0     0
SMALL
USER_CHARGES
1,2,3,5,6,7,8,8a-octahydroindolizine
@<TRIPOS>ATOM
      1 C1         -0.0127    1.0858    0.0080 C.3       1 <0>        -0.1399
      2 C2         -0.7169    1.5732    1.2737 C.3       1 <0>        -0.1504
      3 C3         -0.8875    3.0996    1.2468 C.3       1 <0>         0.0074
      4 C4         -1.9634    4.8639   -0.1423 C.3       1 <0>        -0.0060
      5 C5         -2.3193    4.9589   -1.6499 C.3       1 <0>        -0.1524
      6 C6         -1.5897    3.7605   -2.3087 C.3       1 <0>        -0.1478
      7 C7         -0.8223    3.1072   -1.1542 C.3       1 <0>         0.0296
      8 H1          0.1777    3.5315   -1.0643 H         1 <0>         0.1403
      9 C8         -0.7450    1.5894   -1.2455 C.3       1 <0>        -0.1395
     10 H2          0.0021   -0.0041    0.0020 H         1 <0>         0.0950
     11 H3          1.0114    1.4591    0.0002 H         1 <0>         0.0815
     12 H4         -1.6979    1.1029    1.3424 H         1 <0>         0.0874
     13 H5         -0.1239    1.2941    2.1446 H         1 <0>         0.1125
     14 H6          0.0904    3.5805    1.2224 H         1 <0>         0.1262
     15 H7         -1.4373    3.4260    2.1295 H         1 <0>         0.1329
     16 H8         -2.8186    5.1449    0.4723 H         1 <0>         0.1373
     17 H9         -1.1015    5.4899    0.0886 H         1 <0>         0.1322
     18 H10        -3.3965    4.8710   -1.7913 H         1 <0>         0.0999
     19 H11        -1.9569    5.8987   -2.0665 H         1 <0>         0.1097
     20 H12        -0.8993    4.1096   -3.0766 H         1 <0>         0.1113
     21 H13        -2.3105    3.0609   -2.7319 H         1 <0>         0.0997
     22 H14        -0.1910    1.3004   -2.1387 H         1 <0>         0.1123
     23 H15        -1.7497    1.1683   -1.2812 H         1 <0>         0.0892
     24 N1         -1.6416    3.4372   -0.0113 N.4       1 <0>        -0.3953
     25 H16        -2.5113    2.8918   -0.0293 H         1 <0>         0.4269
@<TRIPOS>BOND
     1    1    9 1
     2    1    2 1
     3    1   10 1
     4    1   11 1
     5    2    3 1
     6    2   12 1
     7    2   13 1
     8    3   14 1
     9    3   15 1
    10    3   24 1
    11    4    5 1
    12    4   16 1
    13    4   17 1
    14    4   24 1
    15    5    6 1
    16    5   18 1
    17    5   19 1
    18    6    7 1
    19    6   20 1
    20    6   21 1
    21    7    8 1
    22    7    9 1
    23    7   24 1
    24    9   22 1
    25    9   23 1
    26   24   25 1
@<TRIPOS>MOLECULE
ZINC19473670
   16    15     0     0     0
SMALL
USER_CHARGES
2-(2-aminoethylsulfanyl)acetonitrile
@<TRIPOS>ATOM
      1 C1         -0.7955    1.5269   -1.1198 C.3       1 <0>         0.0163
      2 C2         -0.7931    3.0563   -1.0777 C.3       1 <0>        -0.1503
      3 S1         -1.7611    3.7010   -2.4699 S.3       1 <0>        -0.1644
      4 C3         -1.6603    5.5020   -2.2778 C.3       1 <0>         0.0020
      5 C4         -2.4155    6.1539   -3.3601 C.1       1 <0>         0.1982
      6 N1         -2.9983    6.6570   -4.1954 N.1       1 <0>        -0.3720
      7 N2         -0.0116    1.0048    0.0076 N.4       1 <0>        -0.6839
      8 H1         -1.8300    1.1598   -1.0484 H         1 <0>         0.1397
      9 H2         -0.3498    1.1854   -2.0657 H         1 <0>         0.1397
     10 H3         -1.2389    3.3977   -0.1318 H         1 <0>         0.1103
     11 H4          0.2414    3.4235   -1.1491 H         1 <0>         0.1104
     12 H5         -2.0877    5.7916   -1.3065 H         1 <0>         0.1362
     13 H6         -0.6075    5.8173   -2.3238 H         1 <0>         0.1362
     14 H7         -0.0133   -0.0948   -0.0227 H         1 <0>         0.4659
     15 H8         -0.4574    1.3463    0.9535 H         1 <0>         0.4578
     16 H9          1.0228    1.3720   -0.0639 H         1 <0>         0.4578
@<TRIPOS>BOND
     1    1    2 1
     2    1    7 1
     3    1    8 1
     4    1    9 1
     5    2    3 1
     6    2   10 1
     7    2   11 1
     8    3    4 1
     9    4    5 1
    10    4   12 1
    11    4   13 1
    12    5    6 3
    13    7   14 1
    14    7   15 1
    15    7   16 1
@<TRIPOS>MOLECULE
ZINC39073493
   21    22     0     0     0
SMALL
USER_CHARGES

@<TRIPOS>ATOM
      1 C1         -0.0178    1.4648    0.0101 C.3       1 <0>        -0.0417
      2 N1          0.0021   -0.0041    0.0020 N.4       1 <0>        -0.4037
      3 C2         -1.3625   -0.5686    0.2196 C.3       1 <0>         0.0608
      4 H1         -2.1225   -0.0090   -0.3257 H         1 <0>         0.1544
      5 C3         -1.3160   -2.0345   -0.2229 C.3       1 <0>        -0.1188
      6 C4         -0.0692   -2.7011    0.2893 C.2       1 <0>        -0.1226
      7 C5          0.8621   -2.0525    0.9319 C.2       1 <0>        -0.1885
      8 C6          0.6858   -0.5463    1.2130 C.3       1 <0>         0.0918
      9 H2          1.6193   -0.0351    1.4484 H         1 <0>         0.1643
     10 C7         -0.3801   -0.4315    2.2968 C.2       1 <0>        -0.1419
     11 C8         -1.5583   -0.4640    1.7167 C.2       1 <0>        -0.1576
     12 H3          1.0047    1.8421    0.0024 H         1 <0>         0.1251
     13 H4         -0.5450    1.8259   -0.8730 H         1 <0>         0.1249
     14 H5         -0.5280    1.8163    0.9069 H         1 <0>         0.1215
     15 H6         -2.1893   -2.5562    0.1686 H         1 <0>         0.1282
     16 H7         -1.3277   -2.0820   -1.3118 H         1 <0>         0.1142
     17 H8          0.0601   -3.7596    0.1184 H         1 <0>         0.1449
     18 H9          1.7481   -2.5683    1.2715 H         1 <0>         0.1554
     19 H10        -0.1983   -0.3397    3.3575 H         1 <0>         0.1777
     20 H11        -2.5104   -0.4223    2.2246 H         1 <0>         0.1773
     21 H12         0.4177   -0.3598   -0.8458 H         1 <0>         0.4343
@<TRIPOS>BOND
     1    1    2 1
     2    1   12 1
     3    1   13 1
     4    1   14 1
     5    2    8 1
     6    2    3 1
     7    2   21 1
     8    3    4 1
     9    3   11 1
    10    3    5 1
    11    5    6 1
    12    5   15 1
    13    5   16 1
    14    6    7 2
    15    6   17 1
    16    7    8 1
    17    7   18 1
    18    8    9 1
    19    8   10 1
    20   10   11 2
    21   10   19 1
    22   11   20 1
@<TRIPOS>MOLECULE
ZINC39134821
   15    15     0     0     0
SMALL
USER_CHARGES

@<TRIPOS>ATOM
      1 C1         -0.0153    1.2752    0.0091 C.2       1 <0>         0.3182
      2 N1          0.0021   -0.0041    0.0020 N.pl3     1 <0>        -0.5056
      3 C2          1.2806   -0.7192   -0.0140 C.3       1 <0>         0.1448
      4 C3          1.4381   -1.4954    1.2681 C.2       1 <0>        -0.0621
      5 N2          1.0701   -2.7258    1.5248 N.2       1 <0>        -0.4729
      6 C4          1.2782   -3.2717    2.7063 C.2       1 <0>         0.0258
      7 C5          1.8901   -2.5004    3.6412 C.2       1 <0>        -0.1726
      8 S1          2.1363   -0.9937    2.7150 S.3       1 <0>         0.1660
      9 H1          0.9126    1.8279    0.0032 H         1 <0>         0.1968
     10 H2         -0.9578    1.8025    0.0164 H         1 <0>         0.2019
     11 H3          1.3018   -1.4065   -0.8598 H         1 <0>         0.1589
     12 H4          2.0966   -0.0026   -0.1075 H         1 <0>         0.1524
     13 H5          0.9756   -4.2859    2.9211 H         1 <0>         0.1896
     14 H6          2.1573   -2.7346    4.6611 H         1 <0>         0.2131
     15 H7         -0.8313   -0.5005    0.0073 H         1 <0>         0.4458
@<TRIPOS>BOND
     1    1    2 2
     2    1    9 1
     3    1   10 1
     4    2    3 1
     5    2   15 1
     6    3    4 1
     7    3   11 1
     8    3   12 1
     9    4    8 1
    10    4    5 2
    11    5    6 1
    12    6    7 2
    13    6   13 1
    14    7    8 1
    15    7   14 1
@<TRIPOS>MOLECULE
ZINC17217400
   16    15     0     0     0
SMALL
USER_CHARGES

@<TRIPOS>ATOM
      1 C1         -0.0178    1.4608    0.0101 C.3       1 <0>         0.0564
      2 N1          0.0021   -0.0041    0.0020 N.pl3     1 <0>        -0.6986
      3 C2          0.5968   -0.6778   -1.0385 C.cat     1 <0>         0.7284
      4 N2          1.1429   -0.0132   -2.0177 N.pl3     1 <0>        -0.7723
      5 N3          0.6154   -2.0524   -1.0460 N.pl3     1 <0>        -0.6985
      6 C3          1.2491   -2.7703   -2.1547 C.3       1 <0>         0.0563
      7 H1          1.0048    1.8381    0.0023 H         1 <0>         0.0845
      8 H2         -0.5450    1.8219   -0.8730 H         1 <0>         0.0845
      9 H3         -0.5280    1.8123    0.9069 H         1 <0>         0.1169
     10 H4         -0.4044   -0.4986    0.7308 H         1 <0>         0.4374
     11 H5          1.5625   -0.4885   -2.7518 H         1 <0>         0.4408
     12 H6          0.2090   -2.5470   -0.3173 H         1 <0>         0.4374
     13 H7          0.7517   -2.5086   -3.0886 H         1 <0>         0.0845
     14 H8          2.3015   -2.4924   -2.2133 H         1 <0>         0.0845
     15 H9          1.1658   -3.8441   -1.9872 H         1 <0>         0.1169
     16 H10         1.1298    0.9567   -2.0124 H         1 <0>         0.4408
@<TRIPOS>BOND
     1    1    2 1
     2    1    7 1
     3    1    8 1
     4    1    9 1
     5    2    3 1
     6    2   10 1
     7    3    4 2
     8    3    5 1
     9    4   11 1
    10    4   16 1
    11    5    6 1
    12    5   12 1
    13    6   13 1
    14    6   14 1
    15    6   15 1
@<TRIPOS>MOLECULE
ZINC02032280
   21    22     0     0     0
SMALL
USER_CHARGES
1-methylinden-1-ol
@<TRIPOS>ATOM
      1 C1         -0.6985   -0.5362   -1.2497 C.3       1 <0>        -0.1665
      2 C2          0.0021   -0.0041    0.0020 C.3       1 <0>         0.1893
      3 C3          1.4635   -0.3870   -0.0140 C.2       1 <0>        -0.1837
      4 C4          2.1826    0.7218   -0.0149 C.2       1 <0>        -0.0996
      5 C5          1.3166    1.9152   -0.0002 C.ar      1 <0>        -0.0744
      6 C6         -0.0184    1.5051    0.0103 C.ar      1 <0>        -0.0883
      7 C7         -1.0331    2.4328    0.0300 C.ar      1 <0>        -0.0826
      8 C8         -0.7337    3.7852    0.0297 C.ar      1 <0>        -0.1171
      9 C9          0.5846    4.2040    0.0199 C.ar      1 <0>        -0.1139
     10 C10         1.6096    3.2809    0.0047 C.ar      1 <0>        -0.0989
     11 O1         -0.6299   -0.5137    1.1780 O.3       1 <0>        -0.5422
     12 H1         -0.1849   -0.1680   -2.1378 H         1 <0>         0.0704
     13 H2         -0.6764   -1.6260   -1.2429 H         1 <0>         0.0671
     14 H3         -1.7333   -0.1938   -1.2603 H         1 <0>         0.0694
     15 H4          1.8536   -1.3941   -0.0234 H         1 <0>         0.1485
     16 H5          3.2621    0.7501   -0.0247 H         1 <0>         0.1351
     17 H6         -2.0628    2.1073    0.0424 H         1 <0>         0.1247
     18 H7         -1.5308    4.5138    0.0409 H         1 <0>         0.1290
     19 H8          0.8126    5.2597    0.0237 H         1 <0>         0.1281
     20 H9          2.6370    3.6137   -0.0030 H         1 <0>         0.1256
     21 H10        -0.6469   -1.4792    1.2283 H         1 <0>         0.3800
@<TRIPOS>BOND
     1    1    2 1
     2    1   12 1
     3    1   13 1
     4    1   14 1
     5    2    6 1
     6    2    3 1
     7    2   11 1
     8    3    4 2
     9    3   15 1
    10    4    5 1
    11    4   16 1
    12    5   10 ar
    13    5    6 ar
    14    6    7 ar
    15    7    8 ar
    16    7   17 1
    17    8    9 ar
    18    8   18 1
    19    9   10 ar
    20    9   19 1
    21   10   20 1
    22   11   21 1
@<TRIPOS>MOLECULE
ZINC00393016
   28    29     0     0     0
SMALL
USER_CHARGES
(4aS,8aR)-8a-hydroxydecalin-2-one
@<TRIPOS>ATOM
      1 C1         -0.7497    1.5911   -1.2327 C.3       1 <0>        -0.1212
      2 C2         -0.7598    3.1216   -1.2245 C.3       1 <0>        -0.1166
      3 C3         -1.4861    3.6133    0.0280 C.3       1 <0>        -0.1452
      4 C4         -0.7624    3.1072    1.2786 C.3       1 <0>         0.1476
      5 C5         -1.5257    3.5948    2.5165 C.3       1 <0>        -0.1931
      6 C6         -0.9067    2.9774    3.7468 C.2       1 <0>         0.3677
      7 O1         -0.5770    3.6620    4.6853 O.2       1 <0>        -0.4555
      8 C7         -0.7093    1.4775    3.7706 C.3       1 <0>        -0.1623
      9 C8          0.0356    1.0695    2.4964 C.3       1 <0>        -0.1090
     10 C9         -0.7268    1.5783    1.2696 C.3       1 <0>        -0.0753
     11 H1         -1.7451    1.1898    1.2862 H         1 <0>         0.0862
     12 C10        -0.0127    1.0858    0.0080 C.3       1 <0>        -0.1123
     13 O2          0.5720    3.6181    1.2990 O.3       1 <0>        -0.5494
     14 H2         -0.2409    1.2352   -2.1286 H         1 <0>         0.0642
     15 H3         -1.7744    1.2195   -1.2241 H         1 <0>         0.0611
     16 H4          0.2652    3.4924   -1.2202 H         1 <0>         0.0698
     17 H5         -1.2755    3.4871   -2.1125 H         1 <0>         0.0626
     18 H6         -1.5009    4.7032    0.0339 H         1 <0>         0.0672
     19 H7         -2.5093    3.2379    0.0244 H         1 <0>         0.0740
     20 H8         -1.4698    4.5917    2.5713 H         1 <0>         0.0828
     21 H9         -2.5702    3.2915    2.4445 H         1 <0>         0.1080
     22 H10        -1.6001    1.0246    3.8090 H         1 <0>         0.0888
     23 H11        -0.1216    1.1982    4.6450 H         1 <0>         0.0895
     24 H12         0.1107   -0.0170    2.4520 H         1 <0>         0.0766
     25 H13         1.0360    1.5022    2.5071 H         1 <0>         0.0789
     26 H14         0.0021   -0.0041    0.0020 H         1 <0>         0.0641
     27 H15         1.0102    1.4622    0.0003 H         1 <0>         0.0730
     28 H16         0.6234    4.5836    1.3118 H         1 <0>         0.3778
@<TRIPOS>BOND
     1    1   12 1
     2    1    2 1
     3    1   14 1
     4    1   15 1
     5    2    3 1
     6    2   16 1
     7    2   17 1
     8    3    4 1
     9    3   18 1
    10    3   19 1
    11    4   10 1
    12    4    5 1
    13    4   13 1
    14    5    6 1
    15    5   20 1
    16    5   21 1
    17    6    7 2
    18    6    8 1
    19    8    9 1
    20    8   22 1
    21    8   23 1
    22    9   10 1
    23    9   24 1
    24    9   25 1
    25   10   11 1
    26   10   12 1
    27   12   26 1
    28   12   27 1
    29   13   28 1
@<TRIPOS>MOLECULE
ZINC37630993
   31    32     0     0     0
SMALL
USER_CHARGES

@<TRIPOS>ATOM
      1 C1          0.0180   -1.1779   -0.0044 C.1       1 <0>        -0.1763
      2 C2          0.0021   -0.0041    0.0020 C.1       1 <0>        -0.2232
      3 C3         -0.0179    1.4678    0.0101 C.3       1 <0>         0.2477
      4 C4         -0.7340    1.9612    1.2689 C.3       1 <0>        -0.1389
      5 C5         -0.7548    3.4910    1.2773 C.3       1 <0>        -0.1110
      6 C6          0.6806    4.0206    1.2665 C.3       1 <0>        -0.0824
      7 H1          1.2078    3.6595    2.1495 H         1 <0>         0.0686
      8 C7          0.6599    5.5504    1.2749 C.3       1 <0>        -0.1142
      9 C8          2.0952    6.0800    1.2640 C.3       1 <0>        -0.1204
     10 C9          2.8114    5.5866    0.0052 C.3       1 <0>        -0.1197
     11 C10         2.8321    4.0568   -0.0032 C.3       1 <0>        -0.1160
     12 C11         1.3967    3.5272    0.0077 C.3       1 <0>        -0.0764
     13 H2          0.8696    3.8883   -0.8754 H         1 <0>         0.0819
     14 C12         1.4175    1.9974   -0.0007 C.3       1 <0>        -0.0958
     15 O1         -0.7090    1.9412   -1.1476 O.3       1 <0>        -0.5432
     16 H3          0.0322   -2.2278   -0.0102 H         1 <0>         0.2194
     17 H4         -1.7566    1.5839    1.2767 H         1 <0>         0.0682
     18 H5         -0.2068    1.6001    2.1520 H         1 <0>         0.0749
     19 H6         -1.2820    3.8521    0.3943 H         1 <0>         0.0715
     20 H7         -1.2650    3.8426    2.1741 H         1 <0>         0.0655
     21 H8          0.1327    5.9115    0.3918 H         1 <0>         0.0629
     22 H9          0.1497    5.9020    2.1717 H         1 <0>         0.0612
     23 H10         2.0805    7.1699    1.2700 H         1 <0>         0.0609
     24 H11         2.6224    5.7189    2.1471 H         1 <0>         0.0606
     25 H12         2.2842    5.9477   -0.8778 H         1 <0>         0.0620
     26 H13         3.8340    5.9639   -0.0025 H         1 <0>         0.0609
     27 H14         3.3423    3.7053   -0.9000 H         1 <0>         0.0621
     28 H15         3.3593    3.6957    0.8799 H         1 <0>         0.0610
     29 H16         1.9447    1.6363    0.8823 H         1 <0>         0.0773
     30 H17         1.9277    1.6458   -0.8975 H         1 <0>         0.0725
     31 H18        -1.6272    1.6437   -1.2065 H         1 <0>         0.3786
@<TRIPOS>BOND
     1    1    2 3
     2    1   16 1
     3    2    3 1
     4    3   14 1
     5    3    4 1
     6    3   15 1
     7    4    5 1
     8    4   17 1
     9    4   18 1
    10    5    6 1
    11    5   19 1
    12    5   20 1
    13    6    7 1
    14    6   12 1
    15    6    8 1
    16    8    9 1
    17    8   21 1
    18    8   22 1
    19    9   10 1
    20    9   23 1
    21    9   24 1
    22   10   11 1
    23   10   25 1
    24   10   26 1
    25   11   12 1
    26   11   27 1
    27   11   28 1
    28   12   13 1
    29   12   14 1
    30   14   29 1
    31   14   30 1
    32   15   31 1
@<TRIPOS>MOLECULE
ZINC39111501
   24    25     0     0     0
SMALL
USER_CHARGES

@<TRIPOS>ATOM
      1 C1         -0.0188    1.5326    0.0105 C.3       1 <0>        -0.1152
      2 C2          1.4880    1.8889   -0.0020 C.3       1 <0>        -0.0711
      3 C3          2.2185    0.6879   -0.5725 C.2       1 <0>         0.1300
      4 N1          3.4851    0.5492   -0.6894 N.2       1 <0>        -0.3307
      5 O1          4.0190   -0.6388   -1.2450 O.3       1 <0>        -0.4125
      6 C4          1.1451   -0.3278   -0.9813 C.3       1 <0>        -0.0780
      7 H1          1.4868   -1.3599   -0.9039 H         1 <0>         0.0948
      8 C5          0.0021   -0.0041    0.0020 C.3       1 <0>        -0.0860
      9 H2          0.2850   -0.3553    0.9943 H         1 <0>         0.0756
     10 C6         -1.3065   -0.6409   -0.3717 C.3       1 <0>        -0.0817
     11 C7         -1.5718   -0.6116   -1.8443 C.2       1 <0>        -0.1521
     12 C8         -0.6717   -0.3185   -2.7237 C.2       1 <0>        -0.1533
     13 C9          0.7467    0.0548   -2.4106 C.3       1 <0>        -0.0766
     14 H3         -0.4978    1.9082    0.9146 H         1 <0>         0.0812
     15 H4         -0.5149    1.9179   -0.8803 H         1 <0>         0.0783
     16 H5          1.6592    2.7625   -0.6311 H         1 <0>         0.0909
     17 H6          1.8325    2.0870    1.0130 H         1 <0>         0.0912
     18 H7          4.9847   -0.6515   -1.2924 H         1 <0>         0.4032
     19 H8         -1.3001   -1.6782   -0.0369 H         1 <0>         0.0753
     20 H9         -2.1119   -0.1144    0.1404 H         1 <0>         0.0774
     21 H10        -2.5673   -0.8482   -2.1899 H         1 <0>         0.1077
     22 H11        -0.9569   -0.3551   -3.7647 H         1 <0>         0.1035
     23 H12         0.8543    1.1330   -2.5292 H         1 <0>         0.0749
     24 H13         1.4198   -0.4428   -3.1087 H         1 <0>         0.0731
@<TRIPOS>BOND
     1    1    8 1
     2    1    2 1
     3    1   14 1
     4    1   15 1
     5    2    3 1
     6    2   16 1
     7    2   17 1
     8    3    4 2
     9    3    6 1
    10    4    5 1
    11    5   18 1
    12    6    7 1
    13    6   13 1
    14    6    8 1
    15    8    9 1
    16    8   10 1
    17   10   11 1
    18   10   19 1
    19   10   20 1
    20   11   12 2
    21   11   21 1
    22   12   13 1
    23   12   22 1
    24   13   23 1
    25   13   24 1
@<TRIPOS>MOLECULE
ZINC43763191
   25    27     0     0     0
SMALL
USER_CHARGES

@<TRIPOS>ATOM
      1 C1         -0.0193    1.5727    0.0107 C.3       1 <0>        -0.1235
      2 C2          1.4920    1.9238   -0.0019 C.3       1 <0>        -0.1183
      3 C3          2.2544    0.5998   -0.2839 C.3       1 <0>        -0.0639
      4 H1          3.2182    0.7151   -0.7797 H         1 <0>         0.0965
      5 C4          1.1151   -0.1653   -1.1000 C.3       1 <0>        -0.1268
      6 C5          0.0021   -0.0041    0.0020 C.3       1 <0>        -0.0952
      7 H2         -0.9420   -0.5222   -0.1662 H         1 <0>         0.1024
      8 C6          0.7187   -0.2474    1.3347 C.3       1 <0>        -0.0890
      9 H3          0.5774    0.6059    1.9981 H         1 <0>         0.0973
     10 C7          2.2424   -0.3174    0.8688 C.3       1 <0>        -0.1139
     11 H4          2.2744   -1.2909    0.3796 H         1 <0>         0.0662
     12 C8          2.8725   -0.6298    2.1598 C.3       1 <0>         0.1621
     13 H5          3.8783   -1.0278    2.0255 H         1 <0>         0.0651
     14 C9          1.8972   -1.7189    2.6619 C.2       1 <0>        -0.2282
     15 C10         0.6466   -1.5136    2.1077 C.2       1 <0>        -0.1236
     16 O1          2.8776    0.5066    3.0262 O.3       1 <0>        -0.5548
     17 H6         -0.4973    1.9491    0.9151 H         1 <0>         0.0650
     18 H7         -0.5145    1.9587   -0.8803 H         1 <0>         0.0642
     19 H8          1.7002    2.6491   -0.7884 H         1 <0>         0.0641
     20 H9          1.7896    2.3268    0.9662 H         1 <0>         0.0689
     21 H10         0.8553    0.3510   -2.0242 H         1 <0>         0.0759
     22 H11         1.3688   -1.2105   -1.2771 H         1 <0>         0.0670
     23 H12         2.1560   -2.5307    3.3256 H         1 <0>         0.1311
     24 H13        -0.2253   -2.1406    2.2217 H         1 <0>         0.1348
     25 H14         3.2845    0.3424    3.8879 H         1 <0>         0.3767
@<TRIPOS>BOND
     1    1    6 1
     2    1    2 1
     3    1   17 1
     4    1   18 1
     5    2    3 1
     6    2   19 1
     7    2   20 1
     8    3    4 1
     9    3   10 1
    10    3    5 1
    11    5    6 1
    12    5   21 1
    13    5   22 1
    14    6    7 1
    15    6    8 1
    16    8    9 1
    17    8   15 1
    18    8   10 1
    19   10   11 1
    20   10   12 1
    21   12   13 1
    22   12   14 1
    23   12   16 1
    24   14   15 2
    25   14   23 1
    26   15   24 1
    27   16   25 1
@<TRIPOS>MOLECULE
ZINC19907619
   35    36     0     0     0
SMALL
USER_CHARGES
2-ethoxy-6-[[(2,3,4-trifluorophenyl)amino]methyl]phenol
@<TRIPOS>ATOM
      1 C1         -0.0187    1.5258    0.0104 C.3       1 <0>        -0.1545
      2 C2          0.0021   -0.0041    0.0020 C.3       1 <0>         0.0514
      3 O1          0.6709   -0.4649   -1.1737 O.3       1 <0>        -0.3046
      4 C3          0.7768   -1.8109   -1.3363 C.ar      1 <0>         0.0905
      5 C4          0.2485   -2.6689   -0.3850 C.ar      1 <0>        -0.1607
      6 C5          0.3571   -4.0369   -0.5518 C.ar      1 <0>        -0.1233
      7 C6          0.9921   -4.5523   -1.6665 C.ar      1 <0>        -0.0946
      8 C7          1.5214   -3.7019   -2.6192 C.ar      1 <0>        -0.1744
      9 C8          1.4109   -2.3297   -2.4610 C.ar      1 <0>         0.1499
     10 O2          1.9261   -1.4918   -3.4002 O.3       1 <0>        -0.4925
     11 C9          2.2129   -4.2672   -3.8330 C.3       1 <0>         0.1700
     12 N1          3.6637   -4.2157   -3.6367 N.pl3     1 <0>        -0.7467
     13 C10         4.5225   -4.6885   -4.6360 C.ar      1 <0>         0.2138
     14 C11         4.0003   -5.2064   -5.8134 C.ar      1 <0>        -0.1621
     15 C12         4.8486   -5.6726   -6.7995 C.ar      1 <0>        -0.0778
     16 C13         6.2196   -5.6247   -6.6156 C.ar      1 <0>         0.0319
     17 C14         6.7458   -5.1087   -5.4412 C.ar      1 <0>         0.0861
     18 C15         5.8994   -4.6348   -4.4531 C.ar      1 <0>         0.0115
     19 F1          6.4108   -4.1258   -3.3110 F         1 <0>        -0.1236
     20 F2          8.0843   -5.0631   -5.2633 F         1 <0>        -0.1155
     21 F3          7.0462   -6.0817   -7.5816 F         1 <0>        -0.1256
     22 H1         -0.5335    1.8805    0.9155 H         1 <0>         0.0804
     23 H2         -0.5508    1.8901   -0.8807 H         1 <0>         0.0676
     24 H3          1.0133    1.9066    0.0025 H         1 <0>         0.0676
     25 H4          0.5342   -0.3684    0.8931 H         1 <0>         0.0621
     26 H5         -1.0299   -0.3849    0.0099 H         1 <0>         0.0622
     27 H6         -0.2477   -2.2689    0.4868 H         1 <0>         0.1357
     28 H7         -0.0548   -4.7046    0.1905 H         1 <0>         0.1297
     29 H8          1.0752   -5.6216   -1.7930 H         1 <0>         0.1286
     30 H9          2.4271   -1.9032   -4.2888 H         1 <0>         0.4263
     31 H10         1.8997   -5.3113   -3.9804 H         1 <0>         0.0839
     32 H11         1.9415   -3.6744   -4.7190 H         1 <0>         0.0717
     33 H12         4.0783   -3.8055   -2.7040 H         1 <0>         0.4335
     34 H13         2.9308   -5.2447   -5.9588 H         1 <0>         0.1484
     35 H14         4.4412   -6.0747   -7.7154 H         1 <0>         0.1535
@<TRIPOS>BOND
     1    1    2 1
     2    1   22 1
     3    1   23 1
     4    1   24 1
     5    2    3 1
     6    2   25 1
     7    2   26 1
     8    3    4 1
     9    4    9 ar
    10    4    5 ar
    11    5    6 ar
    12    5   27 1
    13    6    7 ar
    14    6   28 1
    15    7    8 ar
    16    7   29 1
    17    8    9 ar
    18    8   11 1
    19    9   10 1
    20   10   30 1
    21   11   12 1
    22   11   31 1
    23   11   32 1
    24   12   13 1
    25   12   33 1
    26   13   18 ar
    27   13   14 ar
    28   14   15 ar
    29   14   34 1
    30   15   16 ar
    31   15   35 1
    32   16   17 ar
    33   16   21 1
    34   17   18 ar
    35   17   20 1
    36   18   19 1
@<TRIPOS>MOLECULE
ZINC37885666
   38    39     0     0     0
SMALL
USER_CHARGES

@<TRIPOS>ATOM
      1 C1         -0.0168    1.3844    0.0097 C.ar      1 <0>        -0.1614
      2 C2          1.1700    2.0907    0.0021 C.ar      1 <0>        -0.0837
      3 C3          2.3804    1.4137   -0.0131 C.ar      1 <0>         0.0449
      4 C4          2.4002    0.0268   -0.0207 C.ar      1 <0>        -0.1387
      5 C5          1.2143   -0.6811   -0.0132 C.ar      1 <0>        -0.1588
      6 C6          0.0021   -0.0041    0.0020 C.ar      1 <0>         0.1957
      7 N1         -1.1999   -0.7206    0.0101 N.pl3     1 <0>        -0.7482
      8 C7         -1.1796   -2.1854    0.0020 C.3       1 <0>         0.0979
      9 C8         -2.6148   -2.7155    0.0135 C.3       1 <0>         0.1280
     10 C9         -3.3680   -2.1224    1.2058 C.3       1 <0>        -0.1435
     11 C10        -4.8032   -2.6525    1.2172 C.3       1 <0>        -0.1165
     12 C11        -4.7826   -4.1778    1.3346 C.3       1 <0>        -0.1210
     13 C12        -4.0294   -4.7709    0.1422 C.3       1 <0>        -0.1158
     14 C13        -2.5942   -4.2408    0.1308 C.3       1 <0>        -0.1040
     15 O1         -3.2709   -2.3399   -1.1991 O.3       1 <0>        -0.5482
     16 O2          3.5486    2.1100   -0.0209 O.3       1 <0>        -0.3223
     17 C14         4.7577    1.3485   -0.0365 C.3       1 <0>         0.4115
     18 F1          4.8120    0.5362    1.1012 F         1 <0>        -0.2004
     19 F2          4.7897    0.5478   -1.1832 F         1 <0>        -0.2002
     20 H1         -0.9591    1.9117    0.0260 H         1 <0>         0.1302
     21 H2          1.1556    3.1706    0.0077 H         1 <0>         0.1343
     22 H3          3.3431   -0.4996   -0.0329 H         1 <0>         0.1320
     23 H4          1.2299   -1.7610   -0.0195 H         1 <0>         0.1262
     24 H5         -2.0466   -0.2474    0.0211 H         1 <0>         0.3966
     25 H6         -0.6696   -2.5368   -0.8949 H         1 <0>         0.0695
     26 H7         -0.6519   -2.5463    0.8849 H         1 <0>         0.0681
     27 H8         -2.8675   -2.4089    2.1308 H         1 <0>         0.0739
     28 H9         -3.3827   -1.0357    1.1222 H         1 <0>         0.0633
     29 H10        -5.3399   -2.2299    2.0667 H         1 <0>         0.0616
     30 H11        -5.3037   -2.3659    0.2923 H         1 <0>         0.0688
     31 H12        -4.2821   -4.4643    2.2595 H         1 <0>         0.0601
     32 H13        -5.8051   -4.5554    1.3427 H         1 <0>         0.0631
     33 H14        -4.0147   -5.8576    0.2258 H         1 <0>         0.0631
     34 H15        -4.5299   -4.4844   -0.7827 H         1 <0>         0.0721
     35 H16        -2.0575   -4.6634   -0.7187 H         1 <0>         0.0723
     36 H17        -2.0937   -4.5274    1.0557 H         1 <0>         0.0771
     37 H18        -3.3207   -1.3844   -1.3397 H         1 <0>         0.3725
     38 H19         5.6128    2.0245   -0.0415 H         1 <0>         0.1801
@<TRIPOS>BOND
     1    1    6 ar
     2    1    2 ar
     3    1   20 1
     4    2    3 ar
     5    2   21 1
     6    3    4 ar
     7    3   16 1
     8    4    5 ar
     9    4   22 1
    10    5    6 ar
    11    5   23 1
    12    6    7 1
    13    7    8 1
    14    7   24 1
    15    8    9 1
    16    8   25 1
    17    8   26 1
    18    9   14 1
    19    9   10 1
    20    9   15 1
    21   10   11 1
    22   10   27 1
    23   10   28 1
    24   11   12 1
    25   11   29 1
    26   11   30 1
    27   12   13 1
    28   12   31 1
    29   12   32 1
    30   13   14 1
    31   13   33 1
    32   13   34 1
    33   14   35 1
    34   14   36 1
    35   15   37 1
    36   16   17 1
    37   17   18 1
    38   17   19 1
    39   17   38 1
@<TRIPOS>MOLECULE
ZINC43668530
   38    38     0     0     0
SMALL
USER_CHARGES

@<TRIPOS>ATOM
      1 C1          1.0814   -2.2614   -2.2953 C.3       1 <0>        -0.1544
      2 C2          0.5724   -1.9387   -0.8891 C.3       1 <0>        -0.1179
      3 C3         -0.6514   -2.8031   -0.5788 C.3       1 <0>        -0.0887
      4 H1         -1.4025   -2.6617   -1.3560 H         1 <0>         0.0630
      5 C4         -0.2372   -4.2752   -0.5315 C.3       1 <0>        -0.1568
      6 C5         -1.2350   -2.3937    0.7750 C.3       1 <0>        -0.1254
      7 C6         -2.5440   -3.1483    1.0153 C.3       1 <0>         0.1714
      8 H2         -3.2114   -2.9975    0.1667 H         1 <0>         0.0909
      9 C7         -3.2102   -2.6216    2.2879 C.3       1 <0>        -0.1335
     10 C8         -3.6530   -1.1734    2.0699 C.3       1 <0>        -0.1528
     11 N1         -2.2627   -4.5780    1.1672 N.pl3     1 <0>        -0.3809
     12 C9         -2.8633   -5.5884    0.4864 C.2       1 <0>         0.4029
     13 C10        -2.3165   -6.7570    0.9229 C.2       1 <0>        -0.3123
     14 C11        -1.3598   -6.4462    1.8934 C.2       1 <0>         0.1297
     15 N2         -1.3222   -5.1461    2.0359 N.2       1 <0>        -0.2837
     16 C12        -0.5106   -7.4398    2.6434 C.3       1 <0>        -0.0791
     17 Br1        -2.7710   -8.4917    0.3227 Br        1 <0>        -0.0305
     18 N3         -3.8568   -5.4540   -0.4803 N.pl3     1 <0>        -0.8490
     19 H3          1.9532   -1.6456   -2.5164 H         1 <0>         0.0537
     20 H4          1.3573   -3.3145   -2.3491 H         1 <0>         0.0568
     21 H5          0.2963   -2.0539   -3.0224 H         1 <0>         0.0518
     22 H6          1.3575   -2.1461   -0.1620 H         1 <0>         0.0624
     23 H7          0.2964   -0.8856   -0.8353 H         1 <0>         0.0605
     24 H8         -1.1275   -4.9015   -0.4749 H         1 <0>         0.0602
     25 H9          0.3251   -4.5235   -1.4316 H         1 <0>         0.0492
     26 H10         0.3858   -4.4493    0.3458 H         1 <0>         0.0594
     27 H11        -0.5249   -2.6371    1.5653 H         1 <0>         0.0842
     28 H12        -1.4282   -1.3209    0.7779 H         1 <0>         0.0831
     29 H13        -4.0793   -3.2356    2.5240 H         1 <0>         0.0665
     30 H14        -2.5002   -2.6640    3.1139 H         1 <0>         0.0787
     31 H15        -2.7902   -0.5674    1.7933 H         1 <0>         0.0624
     32 H16        -4.3940   -1.1364    1.2714 H         1 <0>         0.0560
     33 H17        -4.0902   -0.7847    2.9896 H         1 <0>         0.0634
     34 H18         0.4143   -7.6152    2.0939 H         1 <0>         0.0806
     35 H19        -0.2764   -7.0445    3.6319 H         1 <0>         0.0762
     36 H20        -1.0553   -8.3782    2.7471 H         1 <0>         0.0807
     37 H21        -4.1818   -4.5728   -0.7226 H         1 <0>         0.4019
     38 H22        -4.2239   -6.2417   -0.9113 H         1 <0>         0.4192
@<TRIPOS>BOND
     1    1    2 1
     2    1   19 1
     3    1   20 1
     4    1   21 1
     5    2    3 1
     6    2   22 1
     7    2   23 1
     8    3    4 1
     9    3    5 1
    10    3    6 1
    11    5   24 1
    12    5   25 1
    13    5   26 1
    14    6    7 1
    15    6   27 1
    16    6   28 1
    17    7    8 1
    18    7    9 1
    19    7   11 1
    20    9   10 1
    21    9   29 1
    22    9   30 1
    23   10   31 1
    24   10   32 1
    25   10   33 1
    26   11   15 1
    27   11   12 1
    28   12   13 2
    29   12   18 1
    30   13   14 1
    31   13   17 1
    32   14   15 2
    33   14   16 1
    34   16   34 1
    35   16   35 1
    36   16   36 1
    37   18   37 1
    38   18   38 1
@<TRIPOS>MOLECULE
ZINC49877054
   41    42     0     0     0
SMALL
USER_CHARGES

@<TRIPOS>ATOM
      1 C1         -0.0184    1.5028    0.0103 C.3       1 <0>        -0.1180
      2 C2          0.0021   -0.0041    0.0020 C.ar      1 <0>        -0.0788
      3 C3          0.0057   -0.6888   -1.1991 C.ar      1 <0>        -0.1231
      4 C4          0.0245   -2.0707   -1.2067 C.ar      1 <0>        -0.1033
      5 C5          0.0400   -2.7685   -0.0132 C.ar      1 <0>        -0.1277
      6 C6          0.0373   -2.0840    1.1875 C.ar      1 <0>        -0.0709
      7 C7          0.0229   -0.7015    1.1951 C.ar      1 <0>        -0.1196
      8 C8          0.0538   -2.8445    2.4885 C.3       1 <0>        -0.1239
      9 C9          0.0595   -4.2753   -0.0215 C.3       1 <0>         0.1543
     10 H1          0.6582   -4.6356    0.8151 H         1 <0>         0.1125
     11 C10        -1.3701   -4.8045    0.1093 C.3       1 <0>        -0.1604
     12 C11        -1.3406   -6.3298    0.2263 C.3       1 <0>         0.1221
     13 N1         -2.7095   -6.8365    0.3515 N.pl3     1 <0>        -0.7392
     14 C12        -2.9369   -8.2043    0.4723 C.ar      1 <0>         0.2463
     15 C13        -1.8624   -9.0888    0.4797 C.ar      1 <0>        -0.2015
     16 C14        -2.0837  -10.4422    0.5990 C.ar      1 <0>        -0.0175
     17 C15        -3.3897  -10.9279    0.7128 C.ar      1 <0>        -0.0969
     18 C16        -4.4668  -10.0366    0.7051 C.ar      1 <0>        -0.0185
     19 C17        -4.2380   -8.6840    0.5912 C.ar      1 <0>        -0.1998
     20 C18        -3.6237  -12.3352    0.8366 C.1       1 <0>         0.2595
     21 N2         -3.8093  -13.4516    0.9348 N.1       1 <0>        -0.4328
     22 O1          0.6282   -4.7376   -1.2482 O.3       1 <0>        -0.5520
     23 H2          1.0042    1.8801    0.0026 H         1 <0>         0.0723
     24 H3         -0.5455    1.8639   -0.8728 H         1 <0>         0.0676
     25 H4         -0.5286    1.8543    0.9071 H         1 <0>         0.0672
     26 H5         -0.0064   -0.1437   -2.1314 H         1 <0>         0.1232
     27 H6          0.0266   -2.6056   -2.1449 H         1 <0>         0.1217
     28 H7          0.0246   -0.1666    2.1333 H         1 <0>         0.1234
     29 H8          1.0853   -3.0146    2.7969 H         1 <0>         0.0748
     30 H9         -0.4637   -2.2663    3.2539 H         1 <0>         0.0700
     31 H10        -0.4484   -3.8028    2.3555 H         1 <0>         0.0687
     32 H11        -1.8344   -4.3807    0.9998 H         1 <0>         0.0832
     33 H12        -1.9453   -4.5187   -0.7713 H         1 <0>         0.0763
     34 H13        -0.8764   -6.7535   -0.6642 H         1 <0>         0.0736
     35 H14        -0.7654   -6.6156    1.1069 H         1 <0>         0.0654
     36 H15        -3.4573   -6.2187    0.3502 H         1 <0>         0.4025
     37 H16        -0.8537   -8.7129    0.3913 H         1 <0>         0.1317
     38 H17        -1.2494  -11.1280    0.6042 H         1 <0>         0.1313
     39 H18        -5.4769  -10.4085    0.7929 H         1 <0>         0.1313
     40 H19        -5.0693   -7.9946    0.5899 H         1 <0>         0.1300
     41 H20         0.1457   -4.4541   -2.0369 H         1 <0>         0.3751
@<TRIPOS>BOND
     1    1    2 1
     2    1   23 1
     3    1   24 1
     4    1   25 1
     5    2    7 ar
     6    2    3 ar
     7    3    4 ar
     8    3   26 1
     9    4    5 ar
    10    4   27 1
    11    5    6 ar
    12    5    9 1
    13    6    7 ar
    14    6    8 1
    15    7   28 1
    16    8   29 1
    17    8   30 1
    18    8   31 1
    19    9   10 1
    20    9   11 1
    21    9   22 1
    22   11   12 1
    23   11   32 1
    24   11   33 1
    25   12   13 1
    26   12   34 1
    27   12   35 1
    28   13   14 1
    29   13   36 1
    30   14   19 ar
    31   14   15 ar
    32   15   16 ar
    33   15   37 1
    34   16   17 ar
    35   16   38 1
    36   17   18 ar
    37   17   20 1
    38   18   19 ar
    39   18   39 1
    40   19   40 1
    41   20   21 3
    42   22   41 1
@<TRIPOS>MOLECULE
ZINC53102506
   51    52     0     0     0
SMALL
USER_CHARGES

@<TRIPOS>ATOM
      1 C1         -4.2733   -4.9137    0.7206 C.3       1 <0>        -0.1480
      2 C2         -2.8663   -4.3580    0.4910 C.3       1 <0>        -0.0938
      3 C3         -2.0004   -4.6382    1.7209 C.3       1 <0>        -0.1077
      4 C4         -0.5935   -4.0825    1.4913 C.3       1 <0>        -0.1314
      5 C5         -0.6734   -2.5726    1.2570 C.3       1 <0>         0.1875
      6 C6         -1.5394   -2.2925    0.0272 C.3       1 <0>        -0.1202
      7 C7         -2.9463   -2.8482    0.2567 C.3       1 <0>        -0.1147
      8 C8          0.7335   -2.0170    1.0274 C.3       1 <0>         0.0613
      9 O1          0.6735   -0.5923    0.9337 O.3       1 <0>        -0.5686
     10 N1         -1.2680   -1.9272    2.4301 N.am      1 <0>        -0.7117
     11 C9         -0.6851   -2.0569    3.6384 C.2       1 <0>         0.5181
     12 O2          0.3805   -2.6271    3.7396 O.2       1 <0>        -0.5406
     13 C10        -1.3575   -1.4933    4.8637 C.3       1 <0>        -0.1430
     14 C11        -0.4931   -1.7742    6.0945 C.3       1 <0>        -0.0969
     15 C12        -1.1757   -1.2020    7.3385 C.3       1 <0>        -0.0873
     16 C13        -1.2405    0.3227    7.2289 C.3       1 <0>        -0.1166
     17 C14        -1.9231    0.8949    8.4729 C.3       1 <0>        -0.1204
     18 C15        -1.1229    0.5066    9.7178 C.3       1 <0>        -0.1210
     19 C16        -1.0582   -1.0181    9.8274 C.3       1 <0>        -0.1202
     20 C17        -0.3756   -1.5903    8.5834 C.3       1 <0>        -0.1143
     21 H1         -4.8902   -4.7142   -0.1556 H         1 <0>         0.0546
     22 H2         -4.2163   -5.9894    0.8875 H         1 <0>         0.0545
     23 H3         -4.7156   -4.4335    1.5934 H         1 <0>         0.0534
     24 H4         -2.4240   -4.8383   -0.3818 H         1 <0>         0.0702
     25 H5         -2.4428   -4.1579    2.5937 H         1 <0>         0.0616
     26 H6         -1.9435   -5.7138    1.8878 H         1 <0>         0.0632
     27 H7          0.0234   -4.2820    2.3675 H         1 <0>         0.0855
     28 H8         -0.1511   -4.5627    0.6185 H         1 <0>         0.0706
     29 H9         -1.5963   -1.2169   -0.1398 H         1 <0>         0.0769
     30 H10        -1.0970   -2.7727   -0.8457 H         1 <0>         0.0761
     31 H11        -3.5632   -2.6486   -0.6194 H         1 <0>         0.0664
     32 H12        -3.3886   -2.3680    1.1296 H         1 <0>         0.0613
     33 H13         1.3762   -2.2995    1.8612 H         1 <0>         0.0701
     34 H14         1.1388   -2.4253    0.1016 H         1 <0>         0.0472
     35 H15         1.5317   -0.1713    0.7878 H         1 <0>         0.3781
     36 H16        -2.0811   -1.4066    2.3373 H         1 <0>         0.3992
     37 H17        -1.4836   -0.4170    4.7463 H         1 <0>         0.0930
     38 H18        -2.3335   -1.9617    4.9905 H         1 <0>         0.0902
     39 H19        -0.3670   -2.8505    6.2119 H         1 <0>         0.0690
     40 H20         0.4829   -1.3058    5.9677 H         1 <0>         0.0690
     41 H21        -2.1860   -1.6039    7.4159 H         1 <0>         0.0694
     42 H22        -0.2303    0.7246    7.1515 H         1 <0>         0.0621
     43 H23        -1.8105    0.5993    6.3420 H         1 <0>         0.0616
     44 H24        -1.9692    1.9811    8.3948 H         1 <0>         0.0602
     45 H25        -2.9333    0.4930    8.5503 H         1 <0>         0.0605
     46 H26        -0.1127    0.9086    9.6404 H         1 <0>         0.0608
     47 H27        -1.6092    0.9143   10.6040 H         1 <0>         0.0597
     48 H28        -0.4881   -1.2947   10.7143 H         1 <0>         0.0607
     49 H29        -2.0684   -1.4200    9.9048 H         1 <0>         0.0606
     50 H30        -0.3294   -2.6765    8.6615 H         1 <0>         0.0616
     51 H31         0.6347   -1.1883    8.5060 H         1 <0>         0.0622
@<TRIPOS>BOND
     1    1    2 1
     2    1   21 1
     3    1   22 1
     4    1   23 1
     5    2    7 1
     6    2    3 1
     7    2   24 1
     8    3    4 1
     9    3   25 1
    10    3   26 1
    11    4    5 1
    12    4   27 1
    13    4   28 1
    14    5    6 1
    15    5    8 1
    16    5   10 1
    17    6    7 1
    18    6   29 1
    19    6   30 1
    20    7   31 1
    21    7   32 1
    22    8    9 1
    23    8   33 1
    24    8   34 1
    25    9   35 1
    26   10   11 am
    27   10   36 1
    28   11   12 2
    29   11   13 1
    30   13   14 1
    31   13   37 1
    32   13   38 1
    33   14   15 1
    34   14   39 1
    35   14   40 1
    36   15   20 1
    37   15   16 1
    38   15   41 1
    39   16   17 1
    40   16   42 1
    41   16   43 1
    42   17   18 1
    43   17   44 1
    44   17   45 1
    45   18   19 1
    46   18   46 1
    47   18   47 1
    48   19   20 1
    49   19   48 1
    50   19   49 1
    51   20   50 1
    52   20   51 1
@<TRIPOS>MOLECULE
ZINC14421451
   42    43     0     0     0
SMALL
USER_CHARGES
isopropyl 4-[[(1R)-cyclohex-3-ene-1-carbonyl]amino]benzoate
@<TRIPOS>ATOM
      1 C1          9.1973    9.9019   -0.0270 C.3       1 <0>        -0.1709
      2 C2          9.2065    8.7623    0.9939 C.3       1 <0>         0.0814
      3 C3          9.2622    9.3445    2.4077 C.3       1 <0>        -0.1509
      4 O1          7.9997    7.9688    0.8444 O.3       1 <0>        -0.3491
      5 C4          8.0532    6.9291   -0.0111 C.2       1 <0>         0.5118
      6 O2          9.0802    6.6920   -0.6157 O.2       1 <0>        -0.5082
      7 C5          6.8654    6.0791   -0.2137 C.ar      1 <0>        -0.1473
      8 C6          6.9191    4.9999   -1.1009 C.ar      1 <0>        -0.0307
      9 C7          5.8086    4.2083   -1.2871 C.ar      1 <0>        -0.1601
     10 C8          4.6335    4.4810   -0.5936 C.ar      1 <0>         0.1859
     11 C9          4.5748    5.5574    0.2863 C.ar      1 <0>        -0.1381
     12 C10         5.6830    6.3501    0.4814 C.ar      1 <0>        -0.0376
     13 N1          3.5105    3.6774   -0.7851 N.am      1 <0>        -0.6751
     14 C11         2.6634    3.4483    0.2378 C.2       1 <0>         0.5196
     15 O3          2.9268    3.8611    1.3474 O.2       1 <0>        -0.5079
     16 C12         1.3888    2.6793    0.0029 C.3       1 <0>        -0.1064
     17 H1          0.7696    3.2040   -0.7247 H         1 <0>         0.1065
     18 C13         0.6224    2.5356    1.3239 C.3       1 <0>        -0.1012
     19 C14        -0.7428    1.9120    1.0260 C.3       1 <0>        -0.0949
     20 C15        -0.5792    0.6933    0.1658 C.2       1 <0>        -0.1498
     21 C16         0.4927    0.4180   -0.5057 C.2       1 <0>        -0.1600
     22 C17         1.7212    1.2796   -0.5185 C.3       1 <0>        -0.0826
     23 H2         10.1033   10.4975    0.0853 H         1 <0>         0.0764
     24 H3          9.1576    9.4871   -1.0342 H         1 <0>         0.0616
     25 H4          8.3245   10.5329    0.1408 H         1 <0>         0.0670
     26 H5         10.0793    8.1313    0.8261 H         1 <0>         0.0863
     27 H6          9.2688    8.5326    3.1350 H         1 <0>         0.0653
     28 H7         10.1682    9.9401    2.5199 H         1 <0>         0.0799
     29 H8          8.3894    9.9755    2.5754 H         1 <0>         0.0686
     30 H9          7.8307    4.7879   -1.6398 H         1 <0>         0.1427
     31 H10         5.8492    3.3747   -1.9726 H         1 <0>         0.1372
     32 H11         3.6597    5.7689    0.8195 H         1 <0>         0.1429
     33 H12         5.6380    7.1829    1.1676 H         1 <0>         0.1424
     34 H13         3.3388    3.2831   -1.6545 H         1 <0>         0.4147
     35 H14         1.1799    1.8900    2.0025 H         1 <0>         0.0730
     36 H15         0.4857    3.5175    1.7769 H         1 <0>         0.0778
     37 H16        -1.2251    1.6335    1.9630 H         1 <0>         0.0794
     38 H17        -1.3646    2.6373    0.5012 H         1 <0>         0.0767
     39 H18        -1.4060    0.0009    0.1060 H         1 <0>         0.1067
     40 H19         0.5018   -0.4858   -1.0969 H         1 <0>         0.1091
     41 H20         2.4848    0.8296    0.1159 H         1 <0>         0.0805
     42 H21         2.0981    1.3563   -1.5385 H         1 <0>         0.0773
@<TRIPOS>BOND
     1    1    2 1
     2    1   23 1
     3    1   24 1
     4    1   25 1
     5    2    3 1
     6    2    4 1
     7    2   26 1
     8    3   27 1
     9    3   28 1
    10    3   29 1
    11    4    5 1
    12    5    6 2
    13    5    7 1
    14    7   12 ar
    15    7    8 ar
    16    8    9 ar
    17    8   30 1
    18    9   10 ar
    19    9   31 1
    20   10   11 ar
    21   10   13 1
    22   11   12 ar
    23   11   32 1
    24   12   33 1
    25   13   14 am
    26   13   34 1
    27   14   15 2
    28   14   16 1
    29   16   17 1
    30   16   22 1
    31   16   18 1
    32   18   19 1
    33   18   35 1
    34   18   36 1
    35   19   20 1
    36   19   37 1
    37   19   38 1
    38   20   21 2
    39   20   39 1
    40   21   22 1
    41   21   40 1
    42   22   41 1
    43   22   42 1
@<TRIPOS>MOLECULE
ZINC37185685
   44    45     0     0     0
SMALL
USER_CHARGES

@<TRIPOS>ATOM
      1 C1         -0.0184    1.5028    0.0103 C.3       1 <0>        -0.0848
      2 C2          0.0021   -0.0041    0.0020 C.2       1 <0>         0.0841
      3 C3          0.0059   -0.7076   -1.1591 C.2       1 <0>        -0.2274
      4 S1          0.0324   -2.3789   -0.5312 S.3       1 <0>         0.1093
      5 C4          0.0357   -2.0088    1.1107 C.2       1 <0>         0.0775
      6 N1          0.0226   -0.6992    1.1217 N.2       1 <0>        -0.5108
      7 C5          0.0549   -2.9548    2.2837 C.3       1 <0>         0.0219
      8 C6         -1.1932   -2.7309    3.1399 C.3       1 <0>        -0.1356
      9 C7          0.0723   -4.3976    1.7750 C.3       1 <0>        -0.1536
     10 C8          1.3050   -2.6962    3.1270 C.3       1 <0>        -0.1357
     11 C9         -0.0083   -0.2146   -2.5831 C.3       1 <0>         0.2475
     12 H1          0.2429    0.8459   -2.6030 H         1 <0>         0.1005
     13 C10        -1.4020   -0.4199   -3.1801 C.3       1 <0>        -0.1680
     14 N2          0.9749   -0.9641   -3.3692 N.pl3     1 <0>        -0.7375
     15 C11         1.5310   -0.3949   -4.5208 C.ar      1 <0>         0.1345
     16 C12         2.4628   -1.1023   -5.2785 C.ar      1 <0>        -0.1137
     17 C13         2.9855   -0.5002   -6.4090 C.ar      1 <0>        -0.1374
     18 C14         2.5677    0.7798   -6.7494 C.ar      1 <0>         0.2656
     19 N3          1.6822    1.4223   -6.0074 N.ar      1 <0>        -0.4998
     20 C15         1.1577    0.8778   -4.9257 C.ar      1 <0>         0.0634
     21 O1          3.0752    1.3787   -7.8572 O.3       1 <0>        -0.3125
     22 C16         2.6067    2.6955   -8.1552 C.3       1 <0>         0.0424
     23 H2          1.0042    1.8801    0.0026 H         1 <0>         0.0767
     24 H3         -0.5455    1.8639   -0.8728 H         1 <0>         0.0748
     25 H4         -0.5286    1.8543    0.9071 H         1 <0>         0.0778
     26 H5         -2.0838   -2.9152    2.5390 H         1 <0>         0.0572
     27 H6         -1.1793   -3.4151    3.9883 H         1 <0>         0.0698
     28 H7         -1.2057   -1.7030    3.5023 H         1 <0>         0.0671
     29 H8          0.9615   -4.5571    1.1650 H         1 <0>         0.0634
     30 H9          0.0862   -5.0818    2.6234 H         1 <0>         0.0782
     31 H10        -0.8183   -4.5819    1.1742 H         1 <0>         0.0637
     32 H11         1.2925   -1.6682    3.4894 H         1 <0>         0.0671
     33 H12         1.3189   -3.3804    3.9754 H         1 <0>         0.0698
     34 H13         2.1942   -2.8556    2.5171 H         1 <0>         0.0568
     35 H14        -1.4122   -0.0634   -4.2100 H         1 <0>         0.0701
     36 H15        -1.6531   -1.4804   -3.1602 H         1 <0>         0.0629
     37 H16        -2.1335    0.1377   -2.5952 H         1 <0>         0.0705
     38 H17         1.2405   -1.8548   -3.0916 H         1 <0>         0.4001
     39 H18         2.7698   -2.0966   -4.9896 H         1 <0>         0.1399
     40 H19         3.7099   -1.0191   -7.0193 H         1 <0>         0.1427
     41 H20         0.4330    1.4313   -4.3470 H         1 <0>         0.1550
     42 H21         1.5271    2.6721   -8.3034 H         1 <0>         0.0563
     43 H22         2.8454    3.3622   -7.3265 H         1 <0>         0.0562
     44 H23         3.0904    3.0565   -9.0628 H         1 <0>         0.0940
@<TRIPOS>BOND
     1    1    2 1
     2    1   23 1
     3    1   24 1
     4    1   25 1
     5    2    6 1
     6    2    3 2
     7    3    4 1
     8    3   11 1
     9    4    5 1
    10    5    6 2
    11    5    7 1
    12    7    8 1
    13    7    9 1
    14    7   10 1
    15    8   26 1
    16    8   27 1
    17    8   28 1
    18    9   29 1
    19    9   30 1
    20    9   31 1
    21   10   32 1
    22   10   33 1
    23   10   34 1
    24   11   12 1
    25   11   13 1
    26   11   14 1
    27   13   35 1
    28   13   36 1
    29   13   37 1
    30   14   15 1
    31   14   38 1
    32   15   20 ar
    33   15   16 ar
    34   16   17 ar
    35   16   39 1
    36   17   18 ar
    37   17   40 1
    38   18   19 ar
    39   18   21 1
    40   19   20 ar
    41   20   41 1
    42   21   22 1
    43   22   42 1
    44   22   43 1
    45   22   44 1
@<TRIPOS>MOLECULE
ZINC41204235
   35    36     0     0     0
SMALL
USER_CHARGES

@<TRIPOS>ATOM
      1 C1         -0.0187    1.5258    0.0104 C.3       1 <0>        -0.1495
      2 C2          0.0021   -0.0041    0.0020 C.3       1 <0>        -0.0446
      3 C3         -1.4117   -0.5257    0.0127 C.2       1 <0>        -0.1228
      4 C4         -2.2207   -0.8207   -1.0341 C.2       1 <0>        -0.1646
      5 C5         -3.4955   -1.2927   -0.7839 C.2       1 <0>        -0.1300
      6 C6         -3.8991   -1.4465    0.5009 C.2       1 <0>        -0.1734
      7 S1         -2.4530   -0.9228    1.4074 S.3       1 <0>         0.0446
      8 C7         -5.2230   -1.9376    1.0274 C.3       1 <0>         0.2371
      9 H1         -5.9816   -1.8403    0.2508 H         1 <0>         0.1026
     10 C8         -5.0963   -3.4067    1.4354 C.3       1 <0>        -0.1694
     11 N1         -5.6117   -1.1390    2.1925 N.pl3     1 <0>        -0.7319
     12 C9         -6.9609   -1.0198    2.5398 C.ar      1 <0>         0.2161
     13 C10        -7.9330   -1.6628    1.7842 C.ar      1 <0>        -0.1225
     14 C11        -9.2649   -1.5437    2.1290 C.ar      1 <0>        -0.1015
     15 C12        -9.6317   -0.7839    3.2272 C.ar      1 <0>         0.1105
     16 C13        -8.6645   -0.1418    3.9815 C.ar      1 <0>        -0.0359
     17 C14        -7.3305   -0.2632    3.6439 C.ar      1 <0>        -0.1125
     18 N2         -9.0596    0.6704    5.1540 N.pl3     1 <0>         0.0326
     19 O1         -8.2154    1.2313    5.8130 O.2       1 <0>        -0.1532
     20 O2        -10.2266    0.7729    5.4528 O.3       1 <0>        -0.1406
     21 F1        -10.9353   -0.6687    3.5627 F         1 <0>        -0.1078
     22 H2          1.0039    1.9031    0.0027 H         1 <0>         0.0666
     23 H3         -0.5459    1.8868   -0.8726 H         1 <0>         0.0594
     24 H4         -0.5289    1.8773    0.9072 H         1 <0>         0.0580
     25 H5          0.5123   -0.3556   -0.8948 H         1 <0>         0.0893
     26 H6          0.5293   -0.3651    0.8851 H         1 <0>         0.0809
     27 H7         -1.8744   -0.6887   -2.0486 H         1 <0>         0.1360
     28 H8         -4.1603   -1.5349   -1.5999 H         1 <0>         0.1349
     29 H9         -4.3377   -3.5040    2.2121 H         1 <0>         0.0664
     30 H10        -6.0539   -3.7619    1.8163 H         1 <0>         0.0697
     31 H11        -4.8071   -4.0009    0.5686 H         1 <0>         0.0751
     32 H12        -4.9331   -0.6929    2.7230 H         1 <0>         0.4073
     33 H13        -7.6474   -2.2552    0.9275 H         1 <0>         0.1516
     34 H14       -10.0211   -2.0432    1.5416 H         1 <0>         0.1612
     35 H15        -6.5759    0.2340    4.2354 H         1 <0>         0.1602
@<TRIPOS>BOND
     1    1    2 1
     2    1   22 1
     3    1   23 1
     4    1   24 1
     5    2    3 1
     6    2   25 1
     7    2   26 1
     8    3    7 1
     9    3    4 2
    10    4    5 1
    11    4   27 1
    12    5    6 2
    13    5   28 1
    14    6    7 1
    15    6    8 1
    16    8    9 1
    17    8   10 1
    18    8   11 1
    19   10   29 1
    20   10   30 1
    21   10   31 1
    22   11   12 1
    23   11   32 1
    24   12   17 ar
    25   12   13 ar
    26   13   14 ar
    27   13   33 1
    28   14   15 ar
    29   14   34 1
    30   15   16 ar
    31   15   21 1
    32   16   17 ar
    33   16   18 1
    34   17   35 1
    35   18   19 2
    36   18   20 1
@<TRIPOS>MOLECULE
ZINC49897207
   43    44     0     0     0
SMALL
USER_CHARGES

@<TRIPOS>ATOM
      1 C1         -0.0187    1.5258    0.0104 C.3       1 <0>        -0.1456
      2 C2          0.0021   -0.0041    0.0020 C.3       1 <0>        -0.0613
      3 C3          0.7421   -0.5109    1.2415 C.3       1 <0>        -0.1456
      4 C4         -1.4117   -0.5257    0.0127 C.ar      1 <0>        -0.0559
      5 C5         -2.2575   -0.2023    1.0586 C.ar      1 <0>        -0.1242
      6 C6         -3.5533   -0.6766    1.0736 C.ar      1 <0>        -0.0671
      7 C7         -4.0095   -1.4833    0.0319 C.ar      1 <0>        -0.0687
      8 C8         -3.1525   -1.8058   -1.0195 C.ar      1 <0>        -0.0859
      9 C9         -1.8604   -1.3213   -1.0262 C.ar      1 <0>        -0.1246
     10 C10        -5.4001   -1.9963    0.0425 C.ar      1 <0>         0.2576
     11 C11        -5.8411   -2.8069   -1.0034 C.ar      1 <0>        -0.2288
     12 C12        -7.1368   -3.2838   -0.9918 C.ar      1 <0>         0.0241
     13 C13        -7.9681   -2.9326    0.0800 C.ar      1 <0>        -0.1624
     14 C14        -7.4548   -2.1112    1.0997 C.ar      1 <0>         0.4591
     15 N1         -6.2053   -1.6819    1.0498 N.ar      1 <0>        -0.5353
     16 N2         -8.2617   -1.7542    2.1661 N.pl3     1 <0>        -0.7078
     17 C15        -7.7324   -0.8988    3.2311 C.3       1 <0>         0.1321
     18 C16        -8.8202   -0.6578    4.2797 C.3       1 <0>         0.0430
     19 O1         -9.1502   -1.8938    4.9164 O.3       1 <0>        -0.3899
     20 C17       -10.1623   -1.7792    5.9187 C.3       1 <0>         0.0302
     21 C18        -9.3197   -3.4024    0.1361 C.1       1 <0>         0.2580
     22 N3        -10.3919   -3.7750    0.1806 N.1       1 <0>        -0.4191
     23 H1          1.0039    1.9031    0.0027 H         1 <0>         0.0595
     24 H2         -0.5459    1.8868   -0.8726 H         1 <0>         0.0567
     25 H3         -0.5289    1.8773    0.9072 H         1 <0>         0.0576
     26 H4          0.5123   -0.3556   -0.8948 H         1 <0>         0.0793
     27 H5          0.7568   -1.6008    1.2356 H         1 <0>         0.0568
     28 H6          1.7647   -0.1336    1.2338 H         1 <0>         0.0595
     29 H7          0.2319   -0.1594    2.1383 H         1 <0>         0.0577
     30 H8         -1.9028    0.4223    1.8651 H         1 <0>         0.1251
     31 H9         -4.2126   -0.4238    1.8908 H         1 <0>         0.1350
     32 H10        -3.5004   -2.4303   -1.8291 H         1 <0>         0.1304
     33 H11        -1.1969   -1.5671   -1.8422 H         1 <0>         0.1267
     34 H12        -5.1751   -3.0590   -1.8154 H         1 <0>         0.1453
     35 H13        -7.5012   -3.9128   -1.7906 H         1 <0>         0.1458
     36 H14        -9.1778   -2.0705    2.2082 H         1 <0>         0.4126
     37 H15        -6.8783   -1.3882    3.6994 H         1 <0>         0.0805
     38 H16        -7.4176    0.0552    2.8082 H         1 <0>         0.0866
     39 H17        -8.4559    0.0490    5.0252 H         1 <0>         0.0711
     40 H18        -9.7076   -0.2502    3.7955 H         1 <0>         0.0565
     41 H19       -10.3554   -2.7597    6.3539 H         1 <0>         0.0884
     42 H20        -9.8259   -1.0956    6.6982 H         1 <0>         0.0443
     43 H21       -11.0776   -1.3948    5.4685 H         1 <0>         0.0425
@<TRIPOS>BOND
     1    1    2 1
     2    1   23 1
     3    1   24 1
     4    1   25 1
     5    2    3 1
     6    2    4 1
     7    2   26 1
     8    3   27 1
     9    3   28 1
    10    3   29 1
    11    4    9 ar
    12    4    5 ar
    13    5    6 ar
    14    5   30 1
    15    6    7 ar
    16    6   31 1
    17    7    8 ar
    18    7   10 1
    19    8    9 ar
    20    8   32 1
    21    9   33 1
    22   10   15 ar
    23   10   11 ar
    24   11   12 ar
    25   11   34 1
    26   12   13 ar
    27   12   35 1
    28   13   14 ar
    29   13   21 1
    30   14   15 ar
    31   14   16 1
    32   16   17 1
    33   16   36 1
    34   17   18 1
    35   17   37 1
    36   17   38 1
    37   18   19 1
    38   18   39 1
    39   18   40 1
    40   19   20 1
    41   20   41 1
    42   20   42 1
    43   20   43 1
    44   21   22 3
@<TRIPOS>MOLECULE
ZINC49558360
   35    36     0     0     0
SMALL
USER_CHARGES

@<TRIPOS>ATOM
      1 C1         -0.0187    1.5258    0.0104 C.3       1 <0>        -0.1483
      2 C2          0.0021   -0.0041    0.0020 C.3       1 <0>        -0.1081
      3 C3          0.7182   -0.4975   -1.2568 C.3       1 <0>        -0.1578
      4 C4          0.7421   -0.5109    1.2415 C.3       1 <0>         0.2410
      5 H1          0.2319   -0.1594    2.1383 H         1 <0>         0.1081
      6 C5          2.1559    0.0107    1.2308 C.2       1 <0>        -0.1674
      7 C6          2.6853    1.0559    1.9125 C.2       1 <0>        -0.1325
      8 C7          4.0245    1.3553    1.7463 C.2       1 <0>        -0.1600
      9 C8          4.7687    0.5949    0.9066 C.2       1 <0>        -0.1628
     10 S1          3.5699   -0.5924    0.3231 S.3       1 <0>         0.0526
     11 N1          0.7619   -1.9757    1.2335 N.pl3     1 <0>        -0.7270
     12 C9         -0.3198   -2.6917    1.7512 C.ar      1 <0>         0.2947
     13 C10        -1.4180   -2.0159    2.2689 C.ar      1 <0>        -0.1993
     14 C11        -2.4867   -2.7255    2.7799 C.ar      1 <0>        -0.0044
     15 C12        -2.4658   -4.1081    2.7776 C.ar      1 <0>        -0.1983
     16 C13        -1.3733   -4.7858    2.2626 C.ar      1 <0>         0.1958
     17 C14        -0.3023   -4.0800    1.7442 C.ar      1 <0>        -0.1536
     18 N2          0.8629   -4.8038    1.1881 N.pl3     1 <0>         0.0261
     19 O1          1.7902   -5.0985    1.9057 O.2       1 <0>        -0.1314
     20 O2          0.8874   -5.1003    0.0163 O.3       1 <0>        -0.1313
     21 F1         -1.3558   -6.1367    2.2618 F         1 <0>        -0.1185
     22 H2          1.0039    1.9031    0.0027 H         1 <0>         0.0618
     23 H3         -0.5459    1.8868   -0.8726 H         1 <0>         0.0640
     24 H4         -0.5289    1.8773    0.9072 H         1 <0>         0.0580
     25 H5         -1.0205   -0.3814    0.0098 H         1 <0>         0.0854
     26 H6          1.7408   -0.1202   -1.2645 H         1 <0>         0.0650
     27 H7          0.7330   -1.5874   -1.2628 H         1 <0>         0.0555
     28 H8          0.1910   -0.1364   -2.1398 H         1 <0>         0.0637
     29 H9          2.0699    1.6461    2.5753 H         1 <0>         0.1358
     30 H10         4.4710    2.1829    2.2773 H         1 <0>         0.1384
     31 H11         5.8161    0.6821    0.6581 H         1 <0>         0.1891
     32 H12         1.5264   -2.4484    0.8686 H         1 <0>         0.4049
     33 H13        -1.4355   -0.9360    2.2720 H         1 <0>         0.1512
     34 H14        -3.3401   -2.1999    3.1822 H         1 <0>         0.1534
     35 H15        -3.3028   -4.6605    3.1786 H         1 <0>         0.1563
@<TRIPOS>BOND
     1    1    2 1
     2    1   22 1
     3    1   23 1
     4    1   24 1
     5    2    3 1
     6    2    4 1
     7    2   25 1
     8    3   26 1
     9    3   27 1
    10    3   28 1
    11    4    5 1
    12    4    6 1
    13    4   11 1
    14    6   10 1
    15    6    7 2
    16    7    8 1
    17    7   29 1
    18    8    9 2
    19    8   30 1
    20    9   10 1
    21    9   31 1
    22   11   12 1
    23   11   32 1
    24   12   17 ar
    25   12   13 ar
    26   13   14 ar
    27   13   33 1
    28   14   15 ar
    29   14   34 1
    30   15   16 ar
    31   15   35 1
    32   16   17 ar
    33   16   21 1
    34   17   18 1
    35   18   19 2
    36   18   20 1
@<TRIPOS>MOLECULE
ZINC05134470
   25    26     0     0     0
SMALL
USER_CHARGES
4-oxiran-2-ylcyclohexane-1,2-diol
@<TRIPOS>ATOM
      1 C1          1.1687    3.0718    2.5060 C.3       1 <0>        -0.1061
      2 C2          1.3102    1.5483    2.4965 C.3       1 <0>        -0.1490
      3 C3          2.0636    1.1140    1.2377 C.3       1 <0>         0.0736
      4 H1          2.1644    0.0287    1.2309 H         1 <0>         0.0557
      5 C4          1.2864    1.5618   -0.0018 C.3       1 <0>         0.1129
      6 H2          1.8231    1.2523   -0.8987 H         1 <0>         0.0647
      7 C5          1.1449    3.0852    0.0077 C.3       1 <0>        -0.1005
      8 C6          0.3915    3.5195    1.2665 C.3       1 <0>        -0.0708
      9 H3         -0.5981    3.0627    1.2735 H         1 <0>         0.0877
     10 C7          0.2500    5.0430    1.2761 C.3       1 <0>        -0.0060
     11 H4          1.0926    5.5988    0.8646 H         1 <0>         0.1241
     12 C8         -0.5310    5.6792    2.4276 C.3       1 <0>        -0.0381
     13 O1         -1.0581    5.5913    1.1022 O.3       1 <0>        -0.3553
     14 O2         -0.0110    0.9628    0.0073 O.3       1 <0>        -0.5543
     15 O3          3.3610    1.7129    1.2285 O.3       1 <0>        -0.5591
     16 H5          2.1584    3.5286    2.4990 H         1 <0>         0.0728
     17 H6          0.6320    3.3812    3.4028 H         1 <0>         0.0650
     18 H7          1.8639    1.2293    3.3795 H         1 <0>         0.0672
     19 H8          0.3206    1.0915    2.5035 H         1 <0>         0.0787
     20 H9          2.1345    3.5420    0.0007 H         1 <0>         0.0876
     21 H10         0.5912    3.4042   -0.8753 H         1 <0>         0.0710
     22 H11        -0.9488    5.0163    3.1853 H         1 <0>         0.1089
     23 H12        -0.2070    6.6579    2.7814 H         1 <0>         0.1102
     24 H13         0.0021   -0.0041    0.0020 H         1 <0>         0.3781
     25 H14         3.9105    1.4726    1.9870 H         1 <0>         0.3811
@<TRIPOS>BOND
     1    1    8 1
     2    1    2 1
     3    1   16 1
     4    1   17 1
     5    2    3 1
     6    2   18 1
     7    2   19 1
     8    3    4 1
     9    3    5 1
    10    3   15 1
    11    5    6 1
    12    5    7 1
    13    5   14 1
    14    7    8 1
    15    7   20 1
    16    7   21 1
    17    8    9 1
    18    8   10 1
    19   10   11 1
    20   10   13 1
    21   10   12 1
    22   12   13 1
    23   12   22 1
    24   12   23 1
    25   14   24 1
    26   15   25 1
@<TRIPOS>MOLECULE
ZINC37182139
   35    35     0     0     0
SMALL
USER_CHARGES

@<TRIPOS>ATOM
      1 C1         -0.1649    1.6253    0.0976 C.3       1 <0>        -0.1517
      2 C2         -0.0895    0.0981    0.0422 C.3       1 <0>        -0.1444
      3 C3         -1.5037   -0.4842    0.0867 C.3       1 <0>        -0.0185
      4 N1         -1.4314   -1.9505    0.0335 N.4       1 <0>        -0.4803
      5 C4         -2.7851   -2.5115    0.1359 C.3       1 <0>        -0.0158
      6 C5         -3.4675   -1.9710    1.3941 C.3       1 <0>        -0.1192
      7 C6         -2.6548   -2.3716    2.6270 C.3       1 <0>        -0.1328
      8 C7         -2.5699   -3.8970    2.7083 C.3       1 <0>        -0.1220
      9 C8         -1.8875   -4.4376    1.4501 C.3       1 <0>        -0.1012
     10 H1         -0.8830   -4.0213    1.3741 H         1 <0>         0.0582
     11 C9         -2.7001   -4.0370    0.2171 C.3       1 <0>        -0.1150
     12 C10        -1.8025   -5.9630    1.5313 C.3       1 <0>        -0.1486
     13 C11        -3.5855   -2.1170   -1.0785 C.2       1 <0>         0.5006
     14 O1         -3.0401   -1.5515   -2.0108 O.co2     1 <0>        -0.6719
     15 O2         -4.7786   -2.3633   -1.1287 O.co2     1 <0>        -0.6328
     16 H2          0.8426    2.0401    0.0659 H         1 <0>         0.0697
     17 H3         -0.7359    1.9920   -0.7554 H         1 <0>         0.0680
     18 H4         -0.6550    1.9316    1.0217 H         1 <0>         0.0622
     19 H5          0.4006   -0.2082   -0.8819 H         1 <0>         0.0827
     20 H6          0.4815   -0.2687    0.8952 H         1 <0>         0.0742
     21 H7         -1.9938   -0.1779    1.0109 H         1 <0>         0.1190
     22 H8         -2.0747   -0.1174   -0.7662 H         1 <0>         0.1505
     23 H9         -1.0144   -2.2352   -0.8401 H         1 <0>         0.4243
     24 H10        -3.5280   -0.8842    1.3362 H         1 <0>         0.0794
     25 H11        -4.4719   -2.3873    1.4700 H         1 <0>         0.1092
     26 H12        -1.6503   -1.9552    2.5511 H         1 <0>         0.0517
     27 H13        -3.1409   -1.9865    3.5234 H         1 <0>         0.0833
     28 H14        -1.9909   -4.1824    3.5867 H         1 <0>         0.0719
     29 H15        -3.5743   -4.3134    2.7842 H         1 <0>         0.0771
     30 H16        -3.7046   -4.4533    0.2931 H         1 <0>         0.1088
     31 H17        -2.2140   -4.4221   -0.6792 H         1 <0>         0.0793
     32 H18        -2.8070   -6.3794    1.6073 H         1 <0>         0.0635
     33 H19        -1.3164   -6.3481    0.6349 H         1 <0>         0.0595
     34 H20        -1.2236   -6.2484    2.4097 H         1 <0>         0.0607
     35 H21        -0.8687   -2.2875    0.8003 H         1 <0>         0.4005
@<TRIPOS>BOND
     1    1    2 1
     2    1   16 1
     3    1   17 1
     4    1   18 1
     5    2    3 1
     6    2   19 1
     7    2   20 1
     8    3    4 1
     9    3   21 1
    10    3   22 1
    11    4    5 1
    12    4   23 1
    13    4   35 1
    14    5   11 1
    15    5    6 1
    16    5   13 1
    17    6    7 1
    18    6   24 1
    19    6   25 1
    20    7    8 1
    21    7   26 1
    22    7   27 1
    23    8    9 1
    24    8   28 1
    25    8   29 1
    26    9   10 1
    27    9   11 1
    28    9   12 1
    29   11   30 1
    30   11   31 1
    31   12   32 1
    32   12   33 1
    33   12   34 1
    34   13   14 2
    35   13   15 1
@<TRIPOS>MOLECULE
ZINC39065544
   19    20     0     0     0
SMALL
USER_CHARGES

@<TRIPOS>ATOM
      1 C1         -0.0184    1.5056    0.0103 C.3       1 <0>        -0.0694
      2 C2          1.3459    2.1755    0.0009 C.2       1 <0>        -0.0833
      3 C3          2.4448    1.3892   -0.0138 C.2       1 <0>         0.0115
      4 N1          2.4156    0.0708   -0.0206 N.2       1 <0>        -0.3664
      5 C4          1.3199   -0.6625   -0.0141 C.2       1 <0>         0.2700
      6 C5          0.0021   -0.0041    0.0020 C.2       1 <0>        -0.1552
      7 C6         -0.9183   -0.9814    0.0051 C.2       1 <0>        -0.1444
      8 C7         -0.2146   -2.2147   -0.0085 C.2       1 <0>         0.1590
      9 N2          1.0855   -1.9881   -0.0199 N.2       1 <0>        -0.4314
     10 C8         -0.8438   -3.5517   -0.0106 C.2       1 <0>         0.5903
     11 O1         -2.0551   -3.6535   -0.0002 O.2       1 <0>        -0.5215
     12 N3         -0.0748   -4.6584   -0.0240 N.am      1 <0>        -0.8299
     13 H1         -0.5557    1.8358    0.8994 H         1 <0>         0.1285
     14 H2         -0.5725    1.8453   -0.8647 H         1 <0>         0.1285
     15 H3          1.4348    3.2518    0.0055 H         1 <0>         0.1616
     16 H4          3.4107    1.8723   -0.0208 H         1 <0>         0.1634
     17 H5         -1.9907   -0.8538    0.0162 H         1 <0>         0.1641
     18 H6          0.8918   -4.5773   -0.0323 H         1 <0>         0.4137
     19 H7         -0.4878   -5.5361   -0.0254 H         1 <0>         0.4109
@<TRIPOS>BOND
     1    1    6 1
     2    1    2 1
     3    1   13 1
     4    1   14 1
     5    2    3 2
     6    2   15 1
     7    3    4 1
     8    3   16 1
     9    4    5 2
    10    5    9 1
    11    5    6 1
    12    6    7 2
    13    7    8 1
    14    7   17 1
    15    8    9 2
    16    8   10 1
    17   10   11 2
    18   10   12 am
    19   12   18 1
    20   12   19 1
@<TRIPOS>MOLECULE
ZINC45554168
   32    31     0     0     0
SMALL
USER_CHARGES

@<TRIPOS>ATOM
      1 C1         -0.2529    1.4169    0.3607 C.3       1 <0>        -0.1538
      2 C2         -0.0283   -0.0693    0.0751 C.3       1 <0>        -0.0023
      3 C3          0.9257   -0.6510    1.1203 C.3       1 <0>        -0.0912
      4 S1          2.4577    0.3199    1.1475 S.3       1 <0>        -0.2742
      5 C4          3.4668   -0.4882    2.4201 C.3       1 <0>        -0.0196
      6 C5          3.7147   -1.9454    2.0252 C.3       1 <0>        -0.1495
      7 C6          4.8060    0.2406    2.5479 C.3       1 <0>        -0.1305
      8 C7          2.7307   -0.4412    3.7606 C.3       1 <0>        -0.1491
      9 C8         -1.3462   -0.7975    0.1373 C.2       1 <0>         0.5039
     10 O1         -1.6998   -1.4988   -0.7953 O.co2     1 <0>        -0.6650
     11 O2         -2.0588   -0.6855    1.1202 O.co2     1 <0>        -0.6265
     12 N1          0.5561   -0.2279   -1.2633 N.4       1 <0>        -0.4820
     13 C9         -0.2965    0.4445   -2.2527 C.3       1 <0>        -0.0476
     14 H1          0.7003    1.9436    0.3157 H         1 <0>         0.0769
     15 H2         -0.9325    1.8314   -0.3839 H         1 <0>         0.0751
     16 H3         -0.6865    1.5346    1.3538 H         1 <0>         0.1042
     17 H4          0.4546   -0.6141    2.1026 H         1 <0>         0.1247
     18 H5          1.1557   -1.6858    0.8663 H         1 <0>         0.0957
     19 H6          4.2392   -1.9788    1.0703 H         1 <0>         0.0682
     20 H7          4.3211   -2.4309    2.7899 H         1 <0>         0.0720
     21 H8          2.7606   -2.4645    1.9342 H         1 <0>         0.0583
     22 H9          4.6294    1.2787    2.8292 H         1 <0>         0.0676
     23 H10         5.4123   -0.2449    3.3125 H         1 <0>         0.0760
     24 H11         5.3304    0.2071    1.5929 H         1 <0>         0.0650
     25 H12         1.7766   -0.9603    3.6695 H         1 <0>         0.0600
     26 H13         3.3370   -0.9267    4.5252 H         1 <0>         0.0709
     27 H14         2.5540    0.5970    4.0419 H         1 <0>         0.0716
     28 H15         1.4775    0.1830   -1.2788 H         1 <0>         0.4098
     29 H16        -1.3232    0.0945   -2.1453 H         1 <0>         0.1402
     30 H17        -0.2611    1.5218   -2.0905 H         1 <0>         0.1107
     31 H18         0.0621    0.2162   -3.2564 H         1 <0>         0.1138
     32 H19         0.6217   -1.2094   -1.4875 H         1 <0>         0.4266
@<TRIPOS>BOND
     1    1    2 1
     2    1   14 1
     3    1   15 1
     4    1   16 1
     5    2    3 1
     6    2    9 1
     7    2   12 1
     8    3    4 1
     9    3   17 1
    10    3   18 1
    11    4    5 1
    12    5    6 1
    13    5    7 1
    14    5    8 1
    15    6   19 1
    16    6   20 1
    17    6   21 1
    18    7   22 1
    19    7   23 1
    20    7   24 1
    21    8   25 1
    22    8   26 1
    23    8   27 1
    24    9   10 2
    25    9   11 1
    26   12   13 1
    27   12   28 1
    28   12   32 1
    29   13   29 1
    30   13   30 1
    31   13   31 1
@<TRIPOS>MOLECULE
ZINC57877172
   28    28     0     0     0
SMALL
USER_CHARGES

@<TRIPOS>ATOM
      1 C1         -0.0184    1.5028    0.0103 C.3       1 <0>        -0.1259
      2 C2          0.0021   -0.0041    0.0020 C.2       1 <0>         0.0155
      3 C3          0.0060   -0.7062   -1.2115 C.2       1 <0>        -0.2285
      4 C4          0.0249   -2.0595   -1.2090 C.2       1 <0>         0.1329
      5 N1          0.0401   -2.7504   -0.0404 N.am      1 <0>        -0.4980
      6 C5          0.0364   -2.1048    1.1413 C.2       1 <0>         0.5140
      7 O1          0.0499   -2.7399    2.1835 O.2       1 <0>        -0.5457
      8 C6          0.0227   -0.6999    1.1750 C.2       1 <0>        -0.2521
      9 C7          0.0604   -4.2151   -0.0654 C.3       1 <0>         0.1058
     10 C8          1.5098   -4.7049   -0.0810 C.3       1 <0>        -0.0969
     11 H1          2.0385   -4.2486   -0.9179 H         1 <0>         0.1042
     12 C9          2.1948   -4.3128    1.2298 C.3       1 <0>        -0.1393
     13 C10         1.5318   -6.2043   -0.2303 C.2       1 <0>         0.2930
     14 S1          0.1592   -7.0167   -0.3431 S.2       1 <0>        -0.4426
     15 N2          2.7084   -6.8605   -0.2688 N.pl3     1 <0>        -0.7755
     16 H2          1.0042    1.8801    0.0026 H         1 <0>         0.0814
     17 H3         -0.5455    1.8639   -0.8728 H         1 <0>         0.0749
     18 H4         -0.5286    1.8543    0.9071 H         1 <0>         0.0743
     19 H5         -0.0064   -0.1676   -2.1475 H         1 <0>         0.1452
     20 H6          0.0275   -2.5955   -2.1466 H         1 <0>         0.1620
     21 H7          0.0241   -0.1767    2.1198 H         1 <0>         0.1468
     22 H8         -0.4438   -4.6006    0.8208 H         1 <0>         0.1184
     23 H9         -0.4528   -4.5704   -0.9589 H         1 <0>         0.1120
     24 H10         3.2274   -4.6617    1.2186 H         1 <0>         0.0554
     25 H11         2.1789   -3.2283    1.3378 H         1 <0>         0.0731
     26 H12         1.6661   -4.7691    2.0666 H         1 <0>         0.0758
     27 H13         3.5411   -6.3676   -0.2004 H         1 <0>         0.3987
     28 H14         2.7225   -7.8256   -0.3650 H         1 <0>         0.4208
@<TRIPOS>BOND
     1    1    2 1
     2    1   16 1
     3    1   17 1
     4    1   18 1
     5    2    8 2
     6    2    3 1
     7    3    4 2
     8    3   19 1
     9    4    5 1
    10    4   20 1
    11    5    6 am
    12    5    9 1
    13    6    7 2
    14    6    8 1
    15    8   21 1
    16    9   10 1
    17    9   22 1
    18    9   23 1
    19   10   11 1
    20   10   12 1
    21   10   13 1
    22   12   24 1
    23   12   25 1
    24   12   26 1
    25   13   14 2
    26   13   15 1
    27   15   27 1
    28   15   28 1
@<TRIPOS>MOLECULE
ZINC05837622
   69    70     0     0     0
SMALL
USER_CHARGES
3-dipentylamino-1-[(6-methoxy-8-quinolyl)amino]-2-methyl-propan-2-ol
@<TRIPOS>ATOM
      1 C1         -0.4511   10.2328    3.6095 C.3       1 <0>        -0.1581
      2 C2         -0.0476    9.7155    2.2273 C.3       1 <0>        -0.1253
      3 C3          0.5038    8.2941    2.3557 C.3       1 <0>        -0.1166
      4 C4          0.9073    7.7768    0.9735 C.3       1 <0>        -0.1464
      5 C5          1.4586    6.3554    1.1019 C.3       1 <0>        -0.0248
      6 C6          3.0483    6.5223   -0.7168 C.3       1 <0>        -0.0132
      7 C7          3.1340    6.3728   -2.2370 C.3       1 <0>        -0.1511
      8 C8          4.4490    6.9756   -2.7354 C.3       1 <0>        -0.1178
      9 C9          4.5346    6.8261   -4.2557 C.3       1 <0>        -0.1254
     10 C10         5.8496    7.4289   -4.7541 C.3       1 <0>        -0.1585
     11 C11         2.0077    4.3956   -0.2097 C.3       1 <0>        -0.0351
     12 C12         0.6353    3.7195   -0.2252 C.3       1 <0>         0.1041
     13 C13        -0.1829    4.2533   -1.4028 C.3       1 <0>        -0.1618
     14 C14         0.8134    2.2071   -0.3719 C.3       1 <0>         0.1010
     15 N1         -0.4996    1.5715   -0.5067 N.pl3     1 <0>        -0.7209
     16 C15        -0.5927    0.1884   -0.6543 C.ar      1 <0>         0.2748
     17 C16         0.5475   -0.5824   -0.6796 C.ar      1 <0>        -0.2302
     18 C17         0.4695   -1.9695   -0.8210 C.ar      1 <0>         0.1873
     19 C18        -0.7500   -2.5955   -0.9498 C.ar      1 <0>        -0.2584
     20 C19        -1.9291   -1.8345   -0.9334 C.ar      1 <0>        -0.0202
     21 C20        -1.8574   -0.4278   -0.7846 C.ar      1 <0>         0.0539
     22 N2         -2.9792    0.2972   -0.7694 N.ar      1 <0>        -0.4644
     23 C21        -4.1569   -0.2653   -0.8899 C.ar      1 <0>         0.1062
     24 C22        -4.2990   -1.6433   -1.0399 C.ar      1 <0>        -0.1480
     25 C23        -3.1925   -2.4432   -1.0637 C.ar      1 <0>        -0.0795
     26 O1          1.6096   -2.7087   -0.8367 O.3       1 <0>        -0.3146
     27 C24         1.4643   -4.1220   -0.9897 C.3       1 <0>         0.0248
     28 O2         -0.0488    4.0023    0.9971 O.3       1 <0>        -0.5405
     29 H1         -1.2175    9.5826    4.0313 H         1 <0>         0.0573
     30 H2          0.4206   10.2390    4.2638 H         1 <0>         0.0566
     31 H3         -0.8439   11.2455    3.5180 H         1 <0>         0.0609
     32 H4          0.7188   10.3658    1.8054 H         1 <0>         0.0643
     33 H5         -0.9193    9.7094    1.5729 H         1 <0>         0.0652
     34 H6         -0.2626    7.6439    2.7775 H         1 <0>         0.0750
     35 H7          1.3755    8.3003    3.0100 H         1 <0>         0.0723
     36 H8          1.6736    8.4270    0.5517 H         1 <0>         0.0823
     37 H9          0.0355    7.7706    0.3191 H         1 <0>         0.0839
     38 H10         0.6951    5.7070    1.5318 H         1 <0>         0.1507
     39 H11         2.3355    6.3629    1.7494 H         1 <0>         0.1275
     40 H12         3.0107    7.5802   -0.4572 H         1 <0>         0.1320
     41 H13         3.9251    6.0663   -0.2569 H         1 <0>         0.1318
     42 H14         3.0957    5.3159   -2.5010 H         1 <0>         0.0845
     43 H15         2.2965    6.8938   -2.7011 H         1 <0>         0.0868
     44 H16         4.4873    8.0324   -2.4715 H         1 <0>         0.0743
     45 H17         5.2864    6.4546   -2.2714 H         1 <0>         0.0737
     46 H18         4.4963    5.7693   -4.5196 H         1 <0>         0.0651
     47 H19         3.6972    7.3471   -4.7198 H         1 <0>         0.0656
     48 H20         5.8879    8.4858   -4.4902 H         1 <0>         0.0572
     49 H21         6.6871    6.9079   -4.2901 H         1 <0>         0.0570
     50 H22         5.9106    7.3224   -5.8372 H         1 <0>         0.0613
     51 H23         2.5463    4.1039    0.6919 H         1 <0>         0.1404
     52 H24         2.5749    4.0866   -1.0878 H         1 <0>         0.1430
     53 H25        -1.1917    3.8427   -1.3601 H         1 <0>         0.1002
     54 H26        -0.2308    5.3409   -1.3487 H         1 <0>         0.0596
     55 H27         0.2908    3.9566   -2.3385 H         1 <0>         0.0957
     56 H28         1.3188    1.8135    0.5100 H         1 <0>         0.0783
     57 H29         1.4119    1.9960   -1.2581 H         1 <0>         0.0823
     58 H30        -1.3041    2.1134   -0.4972 H         1 <0>         0.4179
     59 H31         1.5136   -0.1092   -0.5844 H         1 <0>         0.1330
     60 H32        -0.7990   -3.6684   -1.0634 H         1 <0>         0.1348
     61 H33        -5.0404    0.3555   -0.8727 H         1 <0>         0.1598
     62 H34        -5.2828   -2.0780   -1.1376 H         1 <0>         0.1403
     63 H35        -3.2837   -3.5132   -1.1788 H         1 <0>         0.1405
     64 H36         0.8702   -4.5175   -0.1659 H         1 <0>         0.0601
     65 H37         0.9637   -4.3357   -1.9341 H         1 <0>         0.0601
     66 H38         2.4483   -4.5909   -0.9859 H         1 <0>         0.1046
     67 H39         0.4134    3.6914    1.7875 H         1 <0>         0.3929
     68 N3          1.8138    5.8605   -0.2448 N.4       1 <0>        -0.3932
     69 H40         1.0487    6.0801   -0.8934 H         1 <0>         0.4232
@<TRIPOS>BOND
     1    1    2 1
     2    1   29 1
     3    1   30 1
     4    1   31 1
     5    2    3 1
     6    2   32 1
     7    2   33 1
     8    3    4 1
     9    3   34 1
    10    3   35 1
    11    4    5 1
    12    4   36 1
    13    4   37 1
    14    5   38 1
    15    5   39 1
    16    5   68 1
    17    6    7 1
    18    6   40 1
    19    6   41 1
    20    6   68 1
    21    7    8 1
    22    7   42 1
    23    7   43 1
    24    8    9 1
    25    8   44 1
    26    8   45 1
    27    9   10 1
    28    9   46 1
    29    9   47 1
    30   10   48 1
    31   10   49 1
    32   10   50 1
    33   11   12 1
    34   11   51 1
    35   11   52 1
    36   11   68 1
    37   12   13 1
    38   12   14 1
    39   12   28 1
    40   13   53 1
    41   13   54 1
    42   13   55 1
    43   14   15 1
    44   14   56 1
    45   14   57 1
    46   15   16 1
    47   15   58 1
    48   16   21 ar
    49   16   17 ar
    50   17   18 ar
    51   17   59 1
    52   18   19 ar
    53   18   26 1
    54   19   20 ar
    55   19   60 1
    56   20   25 ar
    57   20   21 ar
    58   21   22 ar
    59   22   23 ar
    60   23   24 ar
    61   23   61 1
    62   24   25 ar
    63   24   62 1
    64   25   63 1
    65   26   27 1
    66   27   64 1
    67   27   65 1
    68   27   66 1
    69   28   67 1
    70   68   69 1
@<TRIPOS>MOLECULE
ZINC15746589
   50    50     0     0     0
SMALL
USER_CHARGES
butyl 4-[[(1R)-2,2,2-trichloro-1-(ethoxycarbonylamino)ethyl]carbamothioylamino]benzoate
@<TRIPOS>ATOM
      1 C1          4.9932   -6.9355   -0.9709 C.3       1 <0>        -0.1522
      2 C2          3.6111   -6.3672   -0.6423 C.3       1 <0>        -0.1229
      3 C3          3.6743   -4.8385   -0.6456 C.3       1 <0>        -0.1202
      4 C4          2.2923   -4.2702   -0.3170 C.3       1 <0>         0.0669
      5 O1          2.3522   -2.8195   -0.3201 O.3       1 <0>        -0.3541
      6 C5          1.2096   -2.1594   -0.0471 C.2       1 <0>         0.5096
      7 O2          0.1911   -2.7791    0.1873 O.2       1 <0>        -0.5018
      8 C6          1.1954   -0.6852   -0.0326 C.ar      1 <0>        -0.1216
      9 C7          0.0107    0.0014    0.2506 C.ar      1 <0>        -0.0420
     10 C8          0.0011    1.3776    0.2637 C.ar      1 <0>        -0.0853
     11 C9          1.1688    2.0858   -0.0044 C.ar      1 <0>         0.1619
     12 C10         2.3498    1.4057   -0.2867 C.ar      1 <0>        -0.1355
     13 C11         2.3666    0.0296   -0.3015 C.ar      1 <0>        -0.0523
     14 N1          1.1554    3.4790    0.0098 N.pl3     1 <0>        -0.6273
     15 C12         0.4843    4.1367    0.9759 C.2       1 <0>         0.5460
     16 S1         -0.2324    3.2666    2.2644 S.2       1 <0>        -0.5296
     17 N2          0.3772    5.4793    0.9276 N.pl3     1 <0>        -0.6933
     18 C13        -0.3523    6.1942    1.9778 C.3       1 <0>         0.3781
     19 H1         -0.9523    5.4864    2.5497 H         1 <0>         0.2026
     20 C14        -1.2682    7.2410    1.3404 C.3       1 <0>         0.1065
     21 Cl1        -2.4422    6.4239    0.2427 Cl        1 <0>        -0.0506
     22 Cl2        -2.1661    8.1208    2.6329 Cl        1 <0>        -0.0442
     23 Cl3        -0.2757    8.4119    0.3945 Cl        1 <0>        -0.0842
     24 N3          0.6016    6.8582    2.8697 N.am      1 <0>        -0.7132
     25 C15         0.8445    6.3508    4.0945 C.2       1 <0>         0.6485
     26 O3          0.2723    5.3427    4.4590 O.2       1 <0>        -0.5140
     27 O4          1.7211    6.9610    4.9142 O.3       1 <0>        -0.3675
     28 C16         1.9332    6.3589    6.2183 C.3       1 <0>         0.0827
     29 C17         2.9545    7.1859    7.0019 C.3       1 <0>        -0.1541
     30 H2          5.3047   -6.5868   -1.9555 H         1 <0>         0.0560
     31 H3          5.7112   -6.5999   -0.2227 H         1 <0>         0.0562
     32 H4          4.9481   -8.0245   -0.9686 H         1 <0>         0.0579
     33 H5          3.2996   -6.7159    0.3423 H         1 <0>         0.0662
     34 H6          2.8930   -6.7028   -1.3905 H         1 <0>         0.0660
     35 H7          3.9858   -4.4899   -1.6302 H         1 <0>         0.0748
     36 H8          4.3924   -4.5029    0.1026 H         1 <0>         0.0751
     37 H9          1.9808   -4.6189    0.6676 H         1 <0>         0.0723
     38 H10         1.5742   -4.6058   -1.0653 H         1 <0>         0.0720
     39 H11        -0.8957   -0.5475    0.4591 H         1 <0>         0.1453
     40 H12        -0.9146    1.9086    0.4779 H         1 <0>         0.1524
     41 H13         3.2540    1.9585   -0.4947 H         1 <0>         0.1347
     42 H14         3.2835   -0.4975   -0.5203 H         1 <0>         0.1446
     43 H15         1.6292    3.9756   -0.6757 H         1 <0>         0.4104
     44 H16         0.7833    5.9723    0.1976 H         1 <0>         0.4023
     45 H17         1.0583    7.6629    2.5788 H         1 <0>         0.4096
     46 H18         0.9903    6.3336    6.7646 H         1 <0>         0.0748
     47 H19         2.3078    5.3430    6.0929 H         1 <0>         0.0739
     48 H20         3.8974    7.2112    6.4557 H         1 <0>         0.0664
     49 H21         2.5799    8.2018    7.1273 H         1 <0>         0.0676
     50 H22         3.1137    6.7339    7.9809 H         1 <0>         0.0850
@<TRIPOS>BOND
     1    1    2 1
     2    1   30 1
     3    1   31 1
     4    1   32 1
     5    2    3 1
     6    2   33 1
     7    2   34 1
     8    3    4 1
     9    3   35 1
    10    3   36 1
    11    4    5 1
    12    4   37 1
    13    4   38 1
    14    5    6 1
    15    6    7 2
    16    6    8 1
    17    8   13 ar
    18    8    9 ar
    19    9   10 ar
    20    9   39 1
    21   10   11 ar
    22   10   40 1
    23   11   12 ar
    24   11   14 1
    25   12   13 ar
    26   12   41 1
    27   13   42 1
    28   14   15 1
    29   14   43 1
    30   15   16 2
    31   15   17 1
    32   17   18 1
    33   17   44 1
    34   18   19 1
    35   18   20 1
    36   18   24 1
    37   20   21 1
    38   20   22 1
    39   20   23 1
    40   24   25 am
    41   24   45 1
    42   25   26 2
    43   25   27 1
    44   27   28 1
    45   28   29 1
    46   28   46 1
    47   28   47 1
    48   29   48 1
    49   29   49 1
    50   29   50 1
@<TRIPOS>MOLECULE
ZINC33637192
   69    68     0     0     0
SMALL
USER_CHARGES
(9E,12E)-N-[2-(2-hydroxyethylamino)ethyl]octadeca-9,12-dienamide
@<TRIPOS>ATOM
      1 C1         -1.9237    6.8077   -6.0764 C.3       1 <0>        -0.1559
      2 C2         -1.1837    6.3009   -4.8369 C.3       1 <0>        -0.1264
      3 C3         -1.3752    4.7881   -4.7116 C.3       1 <0>        -0.1222
      4 C4         -0.6352    4.2812   -3.4721 C.3       1 <0>        -0.1159
      5 C5         -0.8267    2.7684   -3.3468 C.3       1 <0>        -0.0931
      6 C6         -0.0979    2.2692   -2.1259 C.2       1 <0>        -0.1568
      7 C7         -0.7416    1.5850   -1.2129 C.2       1 <0>        -0.1580
      8 C8         -0.0127    1.0858    0.0080 C.3       1 <0>        -0.0643
      9 C9         -0.7181    1.5718    1.2479 C.2       1 <0>        -0.1517
     10 C10        -1.1093    0.7142    2.1576 C.2       1 <0>        -0.1632
     11 C11        -1.8147    1.2002    3.3975 C.3       1 <0>        -0.0916
     12 C12        -3.1556    0.4770    3.5379 C.3       1 <0>        -0.1162
     13 C13        -3.8718    0.9704    4.7968 C.3       1 <0>        -0.1211
     14 C14        -5.2127    0.2472    4.9372 C.3       1 <0>        -0.1215
     15 C15        -5.9289    0.7406    6.1961 C.3       1 <0>        -0.1209
     16 C16        -7.2698    0.0174    6.3365 C.3       1 <0>        -0.1081
     17 C17        -7.9859    0.5108    7.5954 C.3       1 <0>        -0.1402
     18 C18        -9.3067   -0.2016    7.7337 C.2       1 <0>         0.5204
     19 O1         -9.6422   -1.0230    6.9070 O.2       1 <0>        -0.5273
     20 N1        -10.1151    0.0742    8.7763 N.am      1 <0>        -0.7506
     21 C19       -11.3991   -0.6183    8.9108 C.3       1 <0>         0.0968
     22 C20       -12.1152   -0.1249   10.1696 C.3       1 <0>        -0.0136
     23 N2        -13.4027   -0.8193   10.3045 N.4       1 <0>        -0.5347
     24 C21       -14.1200   -0.3698   11.5051 C.3       1 <0>         0.0011
     25 C22       -15.4528   -1.1136   11.6113 C.3       1 <0>         0.0559
     26 O2        -15.2062   -2.5060   11.8173 O.3       1 <0>        -0.6179
     27 H1         -1.7860    7.8953   -6.1665 H         1 <0>         0.0543
     28 H2         -2.9958    6.5804   -5.9818 H         1 <0>         0.0533
     29 H3         -1.5213    6.3117   -6.9720 H         1 <0>         0.0544
     30 H4         -0.1116    6.5282   -4.9315 H         1 <0>         0.0614
     31 H5         -1.5861    6.7969   -3.9413 H         1 <0>         0.0603
     32 H6         -2.4473    4.5608   -4.6171 H         1 <0>         0.0608
     33 H7         -0.9729    4.2921   -5.6072 H         1 <0>         0.0623
     34 H8          0.4369    4.5085   -3.5666 H         1 <0>         0.0631
     35 H9         -1.0375    4.7771   -2.5765 H         1 <0>         0.0616
     36 H10        -1.8988    2.5411   -3.2523 H         1 <0>         0.0647
     37 H11        -0.4243    2.2724   -4.2424 H         1 <0>         0.0715
     38 H12         0.9746    2.4794   -2.0014 H         1 <0>         0.1100
     39 H13        -1.8141    1.3749   -1.3374 H         1 <0>         0.1090
     40 H14         0.0022   -0.0141    0.0019 H         1 <0>         0.0743
     41 H15         1.0193    1.4665    0.0002 H         1 <0>         0.0752
     42 H16        -0.9045    2.6467    1.3890 H         1 <0>         0.1094
     43 H17        -0.9229   -0.3607    2.0165 H         1 <0>         0.1096
     44 H18        -1.1914    0.9915    4.2795 H         1 <0>         0.0702
     45 H19        -1.9888    2.2835    3.3195 H         1 <0>         0.0649
     46 H20        -3.7788    0.6857    2.6559 H         1 <0>         0.0625
     47 H21        -2.9815   -0.6063    3.6158 H         1 <0>         0.0628
     48 H22        -3.2485    0.7617    5.6788 H         1 <0>         0.0621
     49 H23        -4.0459    2.0537    4.7189 H         1 <0>         0.0616
     50 H24        -5.8359    0.4559    4.0552 H         1 <0>         0.0630
     51 H25        -5.0386   -0.8361    5.0151 H         1 <0>         0.0632
     52 H26        -5.3056    0.5319    7.0781 H         1 <0>         0.0637
     53 H27        -6.1030    1.8239    6.1182 H         1 <0>         0.0635
     54 H28        -7.8931    0.2261    5.4545 H         1 <0>         0.0708
     55 H29        -7.0957   -1.0659    6.4144 H         1 <0>         0.0710
     56 H30        -7.3626    0.3021    8.4774 H         1 <0>         0.0990
     57 H31        -8.1600    1.5941    7.5175 H         1 <0>         0.0988
     58 H32        -9.8108    0.8192    9.5262 H         1 <0>         0.4305
     59 H33       -12.0224   -0.4096    8.0288 H         1 <0>         0.0852
     60 H34       -11.2250   -1.7016    8.9888 H         1 <0>         0.0856
     61 H35       -11.4919   -0.3335   11.0516 H         1 <0>         0.1347
     62 H36       -12.2893    0.9584   10.0916 H         1 <0>         0.1345
     63 H37       -14.0260   -0.6107    9.4224 H         1 <0>         0.4507
     64 H38       -13.5107   -0.5801   12.3965 H         1 <0>         0.1347
     65 H39       -14.3082    0.7118   11.4364 H         1 <0>         0.1409
     66 H40       -16.0292   -0.7140   12.4587 H         1 <0>         0.0908
     67 H41       -16.0245   -0.9761   10.6817 H         1 <0>         0.0679
     68 H42       -16.0496   -3.2049   11.9182 H         1 <0>         0.4478
     69 H43       -13.2286   -1.9026   10.3825 H         1 <0>         0.4614
@<TRIPOS>BOND
     1    1    2 1
     2    1   27 1
     3    1   28 1
     4    1   29 1
     5    2    3 1
     6    2   30 1
     7    2   31 1
     8    3    4 1
     9    3   32 1
    10    3   33 1
    11    4    5 1
    12    4   34 1
    13    4   35 1
    14    5    6 1
    15    5   36 1
    16    5   37 1
    17    6    7 2
    18    6   38 1
    19    7    8 1
    20    7   39 1
    21    8    9 1
    22    8   40 1
    23    8   41 1
    24    9   10 2
    25    9   42 1
    26   10   11 1
    27   10   43 1
    28   11   12 1
    29   11   44 1
    30   11   45 1
    31   12   13 1
    32   12   46 1
    33   12   47 1
    34   13   14 1
    35   13   48 1
    36   13   49 1
    37   14   15 1
    38   14   50 1
    39   14   51 1
    40   15   16 1
    41   15   52 1
    42   15   53 1
    43   16   17 1
    44   16   54 1
    45   16   55 1
    46   17   18 1
    47   17   56 1
    48   17   57 1
    49   18   19 2
    50   18   20 am
    51   20   21 1
    52   20   58 1
    53   21   22 1
    54   21   59 1
    55   21   60 1
    56   22   23 1
    57   22   61 1
    58   22   62 1
    59   23   24 1
    60   23   63 1
    61   23   69 1
    62   24   25 1
    63   24   64 1
    64   24   65 1
    65   25   26 1
    66   25   66 1
    67   25   67 1
    68   26   68 1
@<TRIPOS>MOLECULE
ZINC36563232
   66    66     0     0     0
SMALL
USER_CHARGES

@<TRIPOS>ATOM
      1 C1          1.6095    3.6763    3.1350 C.3       1 <0>        -0.1540
      2 C2          1.0866    2.2519    3.3319 C.3       1 <0>        -0.1256
      3 C3          2.2236    1.3549    3.8253 C.3       1 <0>        -0.1178
      4 C4          1.7007   -0.0694    4.0222 C.3       1 <0>        -0.1153
      5 C5          2.8377   -0.9665    4.5155 C.3       1 <0>        -0.1258
      6 C6          2.3227   -2.3694    4.7095 C.2       1 <0>        -0.0500
      7 C7          2.9866   -3.3990    4.1920 C.2       1 <0>        -0.2270
      8 C8          4.3642   -3.2179    3.7088 C.2       1 <0>         0.5616
      9 O1          4.9401   -2.1631    3.8951 O.2       1 <0>        -0.5423
     10 N1          4.9880   -4.2208    3.0596 N.am      1 <0>        -0.5763
     11 C9          4.2941   -5.4914    2.8352 C.3       1 <0>         0.1125
     12 C10         3.4070   -5.3758    1.5939 C.3       1 <0>        -0.1412
     13 C11         2.5717   -6.6488    1.4437 C.3       1 <0>        -0.1508
     14 C12         6.3599   -4.0404    2.5784 C.3       1 <0>         0.1782
     15 H1          6.6764   -3.0133    2.7596 H         1 <0>         0.1241
     16 C13         6.4160   -4.3300    1.1005 C.ar      1 <0>        -0.1617
     17 C14         7.3785   -5.1932    0.5992 C.ar      1 <0>         0.1523
     18 C15         7.4302   -5.4597   -0.7608 C.ar      1 <0>        -0.1833
     19 C16         6.5190   -4.8632   -1.6193 C.ar      1 <0>         0.1509
     20 C17         5.5558   -4.0007   -1.1178 C.ar      1 <0>        -0.1868
     21 C18         5.5015   -3.7376    0.2427 C.ar      1 <0>         0.1765
     22 O2          4.5547   -2.8960    0.7347 O.3       1 <0>        -0.4805
     23 O3          6.5702   -5.1237   -2.9521 O.3       1 <0>        -0.4938
     24 O4          8.2715   -5.7777    1.4405 O.3       1 <0>        -0.4773
     25 C19         7.2774   -4.9854    3.3106 C.2       1 <0>         0.5314
     26 O5          6.8581   -6.0521    3.7074 O.2       1 <0>        -0.5494
     27 N2          8.5638   -4.6453    3.5245 N.am      1 <0>        -0.7112
     28 C20         9.4834   -5.6066    4.1380 C.3       1 <0>         0.1275
     29 C21        10.8707   -4.9744    4.2672 C.3       1 <0>        -0.1320
     30 C22        11.8311   -5.9784    4.9079 C.3       1 <0>        -0.1208
     31 C23        13.2184   -5.3462    5.0370 C.3       1 <0>        -0.1534
     32 H2          2.4129    3.6698    2.3984 H         1 <0>         0.0533
     33 H3          0.7995    4.3154    2.7836 H         1 <0>         0.0528
     34 H4          1.9886    4.0584    4.0828 H         1 <0>         0.0534
     35 H5          0.2832    2.2584    4.0685 H         1 <0>         0.0598
     36 H6          0.7075    1.8698    2.3841 H         1 <0>         0.0598
     37 H7          3.0270    1.3484    3.0887 H         1 <0>         0.0619
     38 H8          2.6027    1.7370    4.7731 H         1 <0>         0.0610
     39 H9          0.8973   -0.0629    4.7588 H         1 <0>         0.0579
     40 H10         1.3216   -0.4516    3.0744 H         1 <0>         0.0601
     41 H11         3.6411   -0.9730    3.7789 H         1 <0>         0.1156
     42 H12         3.2168   -0.5844    5.4633 H         1 <0>         0.0757
     43 H13         1.4144   -2.5387    5.2687 H         1 <0>         0.1225
     44 H14         2.5144   -4.3681    4.1264 H         1 <0>         0.1284
     45 H15         5.0271   -6.2842    2.6854 H         1 <0>         0.0942
     46 H16         3.6768   -5.7264    3.7023 H         1 <0>         0.0748
     47 H17         2.7445   -4.5168    1.6996 H         1 <0>         0.0698
     48 H18         4.0328   -5.2456    0.7110 H         1 <0>         0.0681
     49 H19         3.2342   -7.5078    1.3381 H         1 <0>         0.0526
     50 H20         1.9459   -6.7790    2.3267 H         1 <0>         0.0544
     51 H21         1.9397   -6.5664    0.5595 H         1 <0>         0.0556
     52 H22         8.1803   -6.1314   -1.1513 H         1 <0>         0.1404
     53 H23         4.8464   -3.5359   -1.7865 H         1 <0>         0.1410
     54 H24         4.8292   -1.9693    0.7641 H         1 <0>         0.3941
     55 H25         6.0337   -5.8802   -3.2259 H         1 <0>         0.3976
     56 H26         8.0186   -6.6659    1.7272 H         1 <0>         0.3972
     57 H27         8.8808   -3.7639    3.2723 H         1 <0>         0.3988
     58 H28         9.1157   -5.8811    5.1267 H         1 <0>         0.0635
     59 H29         9.5470   -6.4979    3.5137 H         1 <0>         0.0663
     60 H30        11.2384   -4.6999    3.2785 H         1 <0>         0.0704
     61 H31        10.8071   -4.0832    4.8915 H         1 <0>         0.0672
     62 H32        11.4634   -6.2529    5.8966 H         1 <0>         0.0640
     63 H33        11.8947   -6.8696    4.2835 H         1 <0>         0.0645
     64 H34        13.5860   -5.0717    4.0483 H         1 <0>         0.0545
     65 H35        13.1548   -4.4549    5.6614 H         1 <0>         0.0543
     66 H36        13.9026   -6.0614    5.4935 H         1 <0>         0.0559
@<TRIPOS>BOND
     1    1    2 1
     2    1   32 1
     3    1   33 1
     4    1   34 1
     5    2    3 1
     6    2   35 1
     7    2   36 1
     8    3    4 1
     9    3   37 1
    10    3   38 1
    11    4    5 1
    12    4   39 1
    13    4   40 1
    14    5    6 1
    15    5   41 1
    16    5   42 1
    17    6    7 2
    18    6   43 1
    19    7    8 1
    20    7   44 1
    21    8    9 2
    22    8   10 am
    23   10   11 1
    24   10   14 1
    25   11   12 1
    26   11   45 1
    27   11   46 1
    28   12   13 1
    29   12   47 1
    30   12   48 1
    31   13   49 1
    32   13   50 1
    33   13   51 1
    34   14   15 1
    35   14   16 1
    36   14   25 1
    37   16   21 ar
    38   16   17 ar
    39   17   18 ar
    40   17   24 1
    41   18   19 ar
    42   18   52 1
    43   19   20 ar
    44   19   23 1
    45   20   21 ar
    46   20   53 1
    47   21   22 1
    48   22   54 1
    49   23   55 1
    50   24   56 1
    51   25   26 2
    52   25   27 am
    53   27   28 1
    54   27   57 1
    55   28   29 1
    56   28   58 1
    57   28   59 1
    58   29   30 1
    59   29   60 1
    60   29   61 1
    61   30   31 1
    62   30   62 1
    63   30   63 1
    64   31   64 1
    65   31   65 1
    66   31   66 1
@<TRIPOS>MOLECULE
ZINC59423217
   72    73     0     0     0
SMALL
USER_CHARGES

@<TRIPOS>ATOM
      1 C1         -0.2475    0.7642    0.4614 C.3       1 <0>        -0.1560
      2 C2         -0.0448   -0.7337    0.2245 C.3       1 <0>        -0.1217
      3 C3          0.8425   -1.3094    1.3300 C.3       1 <0>        -0.1372
      4 C4          1.0452   -2.8073    1.0931 C.3       1 <0>         0.0887
      5 N1          1.8948   -3.3586    2.1516 N.am      1 <0>        -0.4982
      6 C5          1.3190   -3.7912    3.3649 C.2       1 <0>        -0.1707
      7 C6          0.4884   -4.8927    3.3940 C.2       1 <0>         0.5094
      8 N2         -0.0580   -5.2902    4.5922 N.am      1 <0>        -0.5343
      9 C7          0.2137   -4.6128    5.7223 C.2       1 <0>         0.7096
     10 O1         -0.2795   -4.9799    6.7715 O.2       1 <0>        -0.5165
     11 N3          1.0212   -3.5374    5.7132 N.am      1 <0>        -0.6583
     12 H1          1.2017   -3.0664    6.5417 H         1 <0>         0.4371
     13 C8          1.5866   -3.1101    4.5672 C.2       1 <0>         0.5751
     14 O2          2.3210   -2.1367    4.5709 O.2       1 <0>        -0.5190
     15 C9         -0.9416   -6.4579    4.6377 C.3       1 <0>         0.1042
     16 C10        -0.1100   -7.7171    4.8902 C.3       1 <0>        -0.1165
     17 C11        -1.0423   -8.9181    5.0619 C.3       1 <0>        -0.1478
     18 C12         0.8212   -7.9604    3.7009 C.3       1 <0>        -0.1570
     19 N4          0.2100   -5.5843    2.2395 N.pl3     1 <0>        -0.8297
     20 C13         3.2281   -3.4526    1.9663 C.2       1 <0>         0.5082
     21 O3          3.9194   -3.9998    2.7998 O.2       1 <0>        -0.5062
     22 C14         3.8585   -2.8779    0.7239 C.3       1 <0>        -0.0370
     23 N5          5.3090   -3.1075    0.7598 N.4       1 <0>        -0.3685
     24 C15         5.5780   -4.5504    0.7002 C.3       1 <0>         0.0176
     25 C16         7.0509   -4.7957    0.9035 C.2       1 <0>        -0.2362
     26 C17         7.4568   -5.5825    1.8691 C.2       1 <0>        -0.0968
     27 C18         5.9383   -2.4442   -0.3900 C.3       1 <0>         0.0476
     28 C19         5.8019   -0.9505   -0.2447 C.ar      1 <0>        -0.2078
     29 C20         4.7271   -0.2966   -0.8182 C.ar      1 <0>        -0.0576
     30 C21         4.6000    1.0727   -0.6869 C.ar      1 <0>        -0.1481
     31 C22         5.5518    1.7917    0.0216 C.ar      1 <0>         0.1685
     32 C23         6.6290    1.1332    0.5965 C.ar      1 <0>        -0.2062
     33 C24         6.7488   -0.2369    0.4666 C.ar      1 <0>        -0.0463
     34 O4          5.4292    3.1389    0.1518 O.3       1 <0>        -0.3068
     35 C25         6.4463    3.8141    0.8946 C.3       1 <0>         0.0206
     36 H2          0.7191    1.2678    0.4507 H         1 <0>         0.0552
     37 H3         -0.8796    1.1743   -0.3261 H         1 <0>         0.0600
     38 H4         -0.7263    0.9175    1.4285 H         1 <0>         0.0566
     39 H5         -1.0114   -1.2373    0.2353 H         1 <0>         0.0664
     40 H6          0.4340   -0.8871   -0.7426 H         1 <0>         0.0640
     41 H7          1.8091   -0.8058    1.3192 H         1 <0>         0.0664
     42 H8          0.3637   -1.1561    2.2971 H         1 <0>         0.0769
     43 H9          0.0786   -3.3110    1.1039 H         1 <0>         0.0919
     44 H10         1.5240   -2.9607    0.1260 H         1 <0>         0.0870
     45 H11        -1.6665   -6.3339    5.4422 H         1 <0>         0.1186
     46 H12        -1.4665   -6.5537    3.6873 H         1 <0>         0.0947
     47 H13         0.4832   -7.5854    5.7951 H         1 <0>         0.0864
     48 H14        -1.6355   -9.0498    4.1570 H         1 <0>         0.0603
     49 H15        -0.4499   -9.8152    5.2418 H         1 <0>         0.0679
     50 H16        -1.7057   -8.7448    5.9093 H         1 <0>         0.0657
     51 H17         1.4854   -7.1048    3.5785 H         1 <0>         0.0533
     52 H18         1.4136   -8.8575    3.8807 H         1 <0>         0.0693
     53 H19         0.2280   -8.0921    2.7960 H         1 <0>         0.0564
     54 H20         0.5726   -5.2803    1.3927 H         1 <0>         0.4204
     55 H21        -0.3490   -6.3763    2.2714 H         1 <0>         0.4148
     56 H22         3.4355   -3.3629   -0.1558 H         1 <0>         0.1574
     57 H23         3.6612   -1.8069    0.6785 H         1 <0>         0.1610
     58 H24         5.0138   -5.0578    1.4827 H         1 <0>         0.1451
     59 H25         5.2764   -4.9364   -0.2736 H         1 <0>         0.1303
     60 H26         7.7719   -4.3227    0.2532 H         1 <0>         0.1321
     61 H27         6.7358   -6.0554    2.5194 H         1 <0>         0.1121
     62 H28         8.5124   -5.7582    2.0148 H         1 <0>         0.1216
     63 H29         6.9946   -2.7105   -0.4297 H         1 <0>         0.1417
     64 H30         5.4477   -2.7662   -1.3085 H         1 <0>         0.1366
     65 H31         3.9864   -0.8567   -1.3696 H         1 <0>         0.1375
     66 H32         3.7607    1.5831   -1.1356 H         1 <0>         0.1441
     67 H33         7.3713    1.6907    1.1484 H         1 <0>         0.1412
     68 H34         7.5849   -0.7506    0.9177 H         1 <0>         0.1341
     69 H35         6.4739    3.4228    1.9116 H         1 <0>         0.0625
     70 H36         7.4127    3.6527    0.4169 H         1 <0>         0.0629
     71 H37         6.2282    4.8817    0.9218 H         1 <0>         0.1112
     72 H38         5.6883   -2.7297    1.6150 H         1 <0>         0.4304
@<TRIPOS>BOND
     1    1    2 1
     2    1   36 1
     3    1   37 1
     4    1   38 1
     5    2    3 1
     6    2   39 1
     7    2   40 1
     8    3    4 1
     9    3   41 1
    10    3   42 1
    11    4    5 1
    12    4   43 1
    13    4   44 1
    14    5    6 1
    15    5   20 am
    16    6   13 1
    17    6    7 2
    18    7    8 1
    19    7   19 1
    20    8    9 am
    21    8   15 1
    22    9   10 2
    23    9   11 am
    24   11   12 1
    25   11   13 am
    26   13   14 2
    27   15   16 1
    28   15   45 1
    29   15   46 1
    30   16   17 1
    31   16   18 1
    32   16   47 1
    33   17   48 1
    34   17   49 1
    35   17   50 1
    36   18   51 1
    37   18   52 1
    38   18   53 1
    39   19   54 1
    40   19   55 1
    41   20   21 2
    42   20   22 1
    43   22   23 1
    44   22   56 1
    45   22   57 1
    46   23   24 1
    47   23   27 1
    48   23   72 1
    49   24   25 1
    50   24   58 1
    51   24   59 1
    52   25   26 2
    53   25   60 1
    54   26   61 1
    55   26   62 1
    56   27   28 1
    57   27   63 1
    58   27   64 1
    59   28   33 ar
    60   28   29 ar
    61   29   30 ar
    62   29   65 1
    63   30   31 ar
    64   30   66 1
    65   31   32 ar
    66   31   34 1
    67   32   33 ar
    68   32   67 1
    69   33   68 1
    70   34   35 1
    71   35   69 1
    72   35   70 1
    73   35   71 1
@<TRIPOS>MOLECULE
ZINC20127675
   48    49     0     0     0
SMALL
USER_CHARGES
(1R)-1-(4-tert-butylphenyl)-N-[(1R)-1-(3-pyridyl)ethyl]ethanamine
@<TRIPOS>ATOM
      1 C1         -3.0733    0.9260    1.4423 C.3       1 <0>        -0.1775
      2 C2         -2.5137    0.9795    0.0193 C.3       1 <0>         0.0904
      3 H1         -2.3434   -0.0331   -0.3752 H         1 <0>         0.1401
      4 C3         -1.2190    1.7506    0.0173 C.ar      1 <0>        -0.1501
      5 C4         -0.0126    1.0758    0.0080 C.ar      1 <0>        -0.0846
      6 C5          1.1750    1.7832    0.0004 C.ar      1 <0>        -0.1043
      7 C6          1.1563    3.1654    0.0081 C.ar      1 <0>        -0.0355
      8 C7         -0.0501    3.8402    0.0223 C.ar      1 <0>        -0.1093
      9 C8         -1.2377    3.1328    0.0294 C.ar      1 <0>        -0.1181
     10 C9          2.4510    3.9366    0.0003 C.3       1 <0>        -0.0370
     11 C10         3.2467    3.5847   -1.2582 C.3       1 <0>        -0.1439
     12 C11         2.1511    5.4369    0.0112 C.3       1 <0>        -0.1512
     13 C12         3.2697    3.5712    1.2402 C.3       1 <0>        -0.1447
     14 N1         -3.4815    1.6453   -0.8627 N.4       1 <0>        -0.5432
     15 C13        -4.4830    0.6924   -1.3599 C.3       1 <0>         0.0920
     16 H2         -4.6893   -0.0269   -0.5536 H         1 <0>         0.1424
     17 C14        -3.9393   -0.0176   -2.6013 C.3       1 <0>        -0.1789
     18 C15        -5.7463    1.4322   -1.7172 C.ar      1 <0>        -0.1990
     19 C16        -6.9867    0.8855   -1.4247 C.ar      1 <0>        -0.0417
     20 C17        -8.1218    1.6037   -1.7677 C.ar      1 <0>        -0.1570
     21 C18        -7.9806    2.8277   -2.3942 C.ar      1 <0>         0.1287
     22 N2         -6.7847    3.3145   -2.6615 N.ar      1 <0>        -0.4686
     23 C19        -5.6835    2.6612   -2.3457 C.ar      1 <0>         0.1038
     24 H3         -4.0184    0.3631    1.4437 H         1 <0>         0.0814
     25 H4         -3.2552    1.9490    1.8034 H         1 <0>         0.0837
     26 H5         -2.3486    0.4274    2.1028 H         1 <0>         0.1076
     27 H6          0.0021   -0.0041    0.0020 H         1 <0>         0.1318
     28 H7          2.1175    1.2560   -0.0111 H         1 <0>         0.1343
     29 H8         -0.0647    4.9201    0.0283 H         1 <0>         0.1389
     30 H9         -2.1802    3.6601    0.0409 H         1 <0>         0.1193
     31 H10         4.1917    4.1476   -1.2638 H         1 <0>         0.0678
     32 H11         2.6581    3.8474   -2.1496 H         1 <0>         0.0581
     33 H12         3.4624    2.5061   -1.2660 H         1 <0>         0.0593
     34 H13         3.0962    5.9998    0.0055 H         1 <0>         0.0676
     35 H14         1.5791    5.6899    0.9161 H         1 <0>         0.0606
     36 H15         1.5625    5.6996   -0.8801 H         1 <0>         0.0603
     37 H16         4.2147    4.1341    1.2345 H         1 <0>         0.0679
     38 H17         3.4853    2.4926    1.2324 H         1 <0>         0.0594
     39 H18         2.6976    3.8243    2.1450 H         1 <0>         0.0588
     40 H19        -3.9978    2.4412   -0.3060 H         1 <0>         0.4456
     41 H20        -4.6892   -0.7311   -2.9735 H         1 <0>         0.1070
     42 H21        -3.0171   -0.5576   -2.3405 H         1 <0>         0.0862
     43 H22        -3.7207    0.7254   -3.3824 H         1 <0>         0.0851
     44 H23        -7.0665   -0.0752   -0.9378 H         1 <0>         0.1464
     45 H24        -9.1040    1.2100   -1.5517 H         1 <0>         0.1517
     46 H25        -8.8599    3.3919   -2.6677 H         1 <0>         0.1709
     47 H26        -4.7213    3.0919   -2.5806 H         1 <0>         0.1500
     48 H27        -2.9533    2.0827   -1.7228 H         1 <0>         0.4475
@<TRIPOS>BOND
     1    1    2 1
     2    1   24 1
     3    1   25 1
     4    1   26 1
     5    2    3 1
     6    2    4 1
     7    2   14 1
     8    4    9 ar
     9    4    5 ar
    10    5    6 ar
    11    5   27 1
    12    6    7 ar
    13    6   28 1
    14    7    8 ar
    15    7   10 1
    16    8    9 ar
    17    8   29 1
    18    9   30 1
    19   10   11 1
    20   10   12 1
    21   10   13 1
    22   11   31 1
    23   11   32 1
    24   11   33 1
    25   12   34 1
    26   12   35 1
    27   12   36 1
    28   13   37 1
    29   13   38 1
    30   13   39 1
    31   14   15 1
    32   14   40 1
    33   14   48 1
    34   15   16 1
    35   15   17 1
    36   15   18 1
    37   17   41 1
    38   17   42 1
    39   17   43 1
    40   18   23 ar
    41   18   19 ar
    42   19   20 ar
    43   19   44 1
    44   20   21 ar
    45   20   45 1
    46   21   22 ar
    47   21   46 1
    48   22   23 ar
    49   23   47 1
@<TRIPOS>MOLECULE
ZINC35754052
   50    51     0     0     0
SMALL
USER_CHARGES

@<TRIPOS>ATOM
      1 C1         -2.8968   -2.2403   -0.2133 C.3       1 <0>        -0.1555
      2 C2         -1.4483   -1.7486   -0.1836 C.3       1 <0>        -0.1471
      3 C3         -0.6526   -2.4385   -1.2934 C.3       1 <0>        -0.0211
      4 N1          0.7381   -1.9663   -1.2649 N.4       1 <0>        -0.5032
      5 C4          1.4703   -2.5304   -2.4067 C.3       1 <0>         0.0890
      6 H1          2.4913   -2.1487   -2.4072 H         1 <0>         0.1495
      7 C5          0.7848   -2.1313   -3.6889 C.ar      1 <0>        -0.2183
      8 C6          0.3194   -0.8333   -3.8196 C.ar      1 <0>        -0.0891
      9 C7         -0.3103   -0.4323   -4.9815 C.ar      1 <0>        -0.0797
     10 C8         -0.4777   -1.3283   -6.0214 C.ar      1 <0>        -0.0579
     11 C9         -0.0173   -2.6229   -5.8964 C.ar      1 <0>        -0.1330
     12 C10         0.6157   -3.0310   -4.7264 C.ar      1 <0>         0.1608
     13 O1          1.0458   -4.3164   -4.6366 O.3       1 <0>        -0.3025
     14 C11         1.9993   -4.6318   -3.6211 C.3       1 <0>         0.0709
     15 C12         1.4970   -4.0565   -2.2910 C.3       1 <0>        -0.1518
     16 H2          0.4927   -4.4270   -2.0857 H         1 <0>         0.1096
     17 C13         2.4416   -4.4716   -1.1613 C.3       1 <0>        -0.1642
     18 C14        -0.8153    0.9812   -5.1158 C.3       1 <0>        -0.0257
     19 C15        -1.8470    1.2604   -4.0210 C.3       1 <0>        -0.1418
     20 C16         0.3550    1.9565   -4.9743 C.3       1 <0>        -0.1435
     21 C17        -1.4666    1.1618   -6.4884 C.3       1 <0>        -0.1198
     22 C18        -1.9793    2.5969   -6.6248 C.3       1 <0>        -0.1602
     23 H3         -3.3412   -2.0034   -1.1800 H         1 <0>         0.0671
     24 H4         -2.9176   -3.3190   -0.0585 H         1 <0>         0.0667
     25 H5         -3.4637   -1.7488    0.5774 H         1 <0>         0.0784
     26 H6         -1.4276   -0.6698   -0.3384 H         1 <0>         0.0857
     27 H7         -1.0040   -1.9855    0.7831 H         1 <0>         0.0859
     28 H8         -0.6734   -3.5172   -1.1386 H         1 <0>         0.1318
     29 H9         -1.0970   -2.2015   -2.2601 H         1 <0>         0.1359
     30 H10         0.7526   -0.9590   -1.3205 H         1 <0>         0.4264
     31 H11         0.4493   -0.1316   -3.0090 H         1 <0>         0.1204
     32 H12        -0.9690   -1.0150   -6.9308 H         1 <0>         0.1466
     33 H13        -0.1485   -3.3217   -6.7093 H         1 <0>         0.1453
     34 H14         2.1025   -5.7137   -3.5377 H         1 <0>         0.1305
     35 H15         2.9631   -4.1889   -3.8722 H         1 <0>         0.0809
     36 H16         2.0935   -4.0440   -0.2210 H         1 <0>         0.0619
     37 H17         2.4579   -5.5586   -1.0822 H         1 <0>         0.0896
     38 H18         3.4465   -4.1078   -1.3758 H         1 <0>         0.0782
     39 H19        -1.3830    1.1317   -3.0432 H         1 <0>         0.0484
     40 H20        -2.2123    2.2827   -4.1182 H         1 <0>         0.0709
     41 H21        -2.6808    0.5656   -4.1219 H         1 <0>         0.0591
     42 H22         1.0901    1.7576   -5.7542 H         1 <0>         0.0602
     43 H23        -0.0102    2.9789   -5.0714 H         1 <0>         0.0701
     44 H24         0.8190    1.8278   -3.9964 H         1 <0>         0.0510
     45 H25        -0.7315    0.9630   -7.2683 H         1 <0>         0.0685
     46 H26        -2.3003    0.4670   -6.5892 H         1 <0>         0.0679
     47 H27        -2.4433    2.7256   -7.6027 H         1 <0>         0.0596
     48 H28        -2.7143    2.7958   -5.8448 H         1 <0>         0.0592
     49 H29        -1.1455    3.2917   -6.5240 H         1 <0>         0.0599
     50 H30         1.1761   -2.2620   -0.4053 H         1 <0>         0.4287
@<TRIPOS>BOND
     1    1    2 1
     2    1   23 1
     3    1   24 1
     4    1   25 1
     5    2    3 1
     6    2   26 1
     7    2   27 1
     8    3    4 1
     9    3   28 1
    10    3   29 1
    11    4    5 1
    12    4   30 1
    13    4   50 1
    14    5    6 1
    15    5   15 1
    16    5    7 1
    17    7   12 ar
    18    7    8 ar
    19    8    9 ar
    20    8   31 1
    21    9   10 ar
    22    9   18 1
    23   10   11 ar
    24   10   32 1
    25   11   12 ar
    26   11   33 1
    27   12   13 1
    28   13   14 1
    29   14   15 1
    30   14   34 1
    31   14   35 1
    32   15   16 1
    33   15   17 1
    34   17   36 1
    35   17   37 1
    36   17   38 1
    37   18   19 1
    38   18   20 1
    39   18   21 1
    40   19   39 1
    41   19   40 1
    42   19   41 1
    43   20   42 1
    44   20   43 1
    45   20   44 1
    46   21   22 1
    47   21   45 1
    48   21   46 1
    49   22   47 1
    50   22   48 1
    51   22   49 1
@<TRIPOS>MOLECULE
ZINC43315891
   45    46     0     0     0
SMALL
USER_CHARGES

@<TRIPOS>ATOM
      1 C1         -0.0184    1.5028    0.0103 C.3       1 <0>        -0.1284
      2 C2          0.0021   -0.0041    0.0020 C.ar      1 <0>        -0.0659
      3 C3          0.0057   -0.6888   -1.1991 C.ar      1 <0>        -0.0879
      4 C4          0.0245   -2.0707   -1.2067 C.ar      1 <0>        -0.1005
      5 C5          0.0400   -2.7685   -0.0132 C.ar      1 <0>        -0.1306
      6 C6          0.0373   -2.0840    1.1875 C.ar      1 <0>        -0.1387
      7 C7          0.0229   -0.7015    1.1951 C.ar      1 <0>        -0.0400
      8 C8          0.0252    0.0449    2.5043 C.3       1 <0>        -0.1280
      9 C9          0.0538   -2.8445    2.4885 C.3       1 <0>         0.1881
     10 H1          0.6399   -2.2936    3.2240 H         1 <0>         0.1727
     11 C10        -1.3571   -3.0094    2.9918 C.2       1 <0>        -0.0399
     12 N1         -1.9515   -2.3731    3.9700 N.2       1 <0>        -0.4508
     13 C11        -3.2026   -2.6306    4.2956 C.2       1 <0>         0.0782
     14 C12        -3.8432   -3.5835    3.5713 C.2       1 <0>        -0.1713
     15 S1         -2.5532   -4.0509    2.4285 S.3       1 <0>         0.1260
     16 C13        -3.8901   -1.9010    5.4208 C.3       1 <0>         0.0055
     17 C14        -5.2815   -2.4981    5.6408 C.3       1 <0>        -0.1521
     18 C15        -3.0652   -2.0448    6.7013 C.3       1 <0>        -0.1371
     19 C16        -4.0218   -0.4193    5.0627 C.3       1 <0>        -0.1388
     20 N2          0.6552   -4.1676    2.2746 N.4       1 <0>        -0.5088
     21 C17         2.0665   -4.0090    1.8992 C.3       1 <0>        -0.0514
     22 H2          1.0042    1.8801    0.0026 H         1 <0>         0.0821
     23 H3         -0.5455    1.8639   -0.8728 H         1 <0>         0.0767
     24 H4         -0.5286    1.8543    0.9071 H         1 <0>         0.0755
     25 H5         -0.0064   -0.1437   -2.1314 H         1 <0>         0.1375
     26 H6          0.0266   -2.6056   -2.1449 H         1 <0>         0.1380
     27 H7          0.0540   -3.8484   -0.0191 H         1 <0>         0.1159
     28 H8         -1.0017    0.2110    2.8297 H         1 <0>         0.0847
     29 H9          0.5542   -0.5412    3.2558 H         1 <0>         0.0678
     30 H10         0.5249    1.0049    2.3743 H         1 <0>         0.0824
     31 H11        -4.8540   -3.9536    3.6593 H         1 <0>         0.2112
     32 H12        -5.1877   -3.5537    5.8959 H         1 <0>         0.0621
     33 H13        -5.7788   -1.9704    6.4546 H         1 <0>         0.0743
     34 H14        -5.8693   -2.3956    4.7286 H         1 <0>         0.0618
     35 H15        -2.0739   -1.6194    6.5445 H         1 <0>         0.0637
     36 H16        -3.5625   -1.5171    7.5151 H         1 <0>         0.0673
     37 H17        -2.9714   -3.1004    6.9564 H         1 <0>         0.0539
     38 H18        -4.6095   -0.3169    4.1504 H         1 <0>         0.0550
     39 H19        -4.5191    0.1084    5.8765 H         1 <0>         0.0689
     40 H20        -3.0305    0.0060    4.9059 H         1 <0>         0.0619
     41 H21         0.5919   -4.7072    3.1248 H         1 <0>         0.4367
     42 H22         2.1349   -3.4261    0.9807 H         1 <0>         0.1305
     43 H23         2.5991   -3.4926    2.6978 H         1 <0>         0.1306
     44 H24         2.5128   -4.9908    1.7405 H         1 <0>         0.1359
     45 H25         0.1622   -4.6456    1.5353 H         1 <0>         0.4251
@<TRIPOS>BOND
     1    1    2 1
     2    1   22 1
     3    1   23 1
     4    1   24 1
     5    2    7 ar
     6    2    3 ar
     7    3    4 ar
     8    3   25 1
     9    4    5 ar
    10    4   26 1
    11    5    6 ar
    12    5   27 1
    13    6    7 ar
    14    6    9 1
    15    7    8 1
    16    8   28 1
    17    8   29 1
    18    8   30 1
    19    9   10 1
    20    9   11 1
    21    9   20 1
    22   11   15 1
    23   11   12 2
    24   12   13 1
    25   13   14 2
    26   13   16 1
    27   14   15 1
    28   14   31 1
    29   16   17 1
    30   16   18 1
    31   16   19 1
    32   17   32 1
    33   17   33 1
    34   17   34 1
    35   18   35 1
    36   18   36 1
    37   18   37 1
    38   19   38 1
    39   19   39 1
    40   19   40 1
    41   20   21 1
    42   20   41 1
    43   20   45 1
    44   21   42 1
    45   21   43 1
    46   21   44 1
@<TRIPOS>MOLECULE
ZINC53101456
   47    48     0     0     0
SMALL
USER_CHARGES

@<TRIPOS>ATOM
      1 C1         -0.0187    1.5258    0.0104 C.3       1 <0>        -0.1567
      2 C2          0.0021   -0.0041    0.0020 C.3       1 <0>        -0.1269
      3 C3         -1.4333   -0.5336    0.0129 C.3       1 <0>        -0.1253
      4 C4         -1.4126   -2.0635    0.0045 C.3       1 <0>        -0.1339
      5 C5         -2.8479   -2.5931    0.0153 C.3       1 <0>         0.1271
      6 H1         -3.3848   -2.1704    0.8646 H         1 <0>         0.1080
      7 C6         -2.8279   -4.1184    0.1327 C.3       1 <0>        -0.1778
      8 N1         -3.5200   -2.2077   -1.2281 N.pl3     1 <0>        -0.6233
      9 C7         -4.8908   -2.0967   -1.2631 C.cat     1 <0>         0.4841
     10 N2         -5.6292   -1.7717   -2.2849 N.pl3     1 <0>        -0.6345
     11 C8         -7.0740   -1.6681   -2.1706 C.3       1 <0>         0.1384
     12 C9         -7.7450   -2.2905   -3.3992 C.3       1 <0>        -0.1201
     13 C10        -9.2647   -2.2004   -3.2479 C.3       1 <0>        -0.1208
     14 C11        -9.6797   -0.7325   -3.1300 C.3       1 <0>        -0.1262
     15 C12        -9.0082   -0.1088   -1.9050 C.3       1 <0>        -0.0892
     16 H2         -9.3166   -0.6466   -1.0085 H         1 <0>         0.0799
     17 C13        -7.4883   -0.1977   -2.0554 C.3       1 <0>        -0.1246
     18 C14        -9.4239    1.3589   -1.7876 C.3       1 <0>        -0.1528
     19 C15        -7.5862   -2.4162   -0.9078 C.3       1 <0>        -0.1069
     20 S1         -6.0324   -2.3753    0.0809 S.3       1 <0>         0.0207
     21 H3          1.0039    1.9031    0.0027 H         1 <0>         0.0607
     22 H4         -0.5459    1.8868   -0.8726 H         1 <0>         0.0521
     23 H5         -0.5289    1.8773    0.9072 H         1 <0>         0.0561
     24 H6          0.5123   -0.3556   -0.8948 H         1 <0>         0.0642
     25 H7          0.5293   -0.3651    0.8851 H         1 <0>         0.0685
     26 H8         -1.9435   -0.1821    0.9097 H         1 <0>         0.0699
     27 H9         -1.9605   -0.1726   -0.8702 H         1 <0>         0.0566
     28 H10        -0.9024   -2.4150   -0.8923 H         1 <0>         0.0823
     29 H11        -0.8854   -2.4246    0.8875 H         1 <0>         0.1047
     30 H12        -2.2911   -4.5411   -0.7166 H         1 <0>         0.0735
     31 H13        -2.3278   -4.4051    1.0578 H         1 <0>         0.0947
     32 H14        -3.8505   -4.4957    0.1404 H         1 <0>         0.0697
     33 H15        -2.9985   -2.0309   -2.0266 H         1 <0>         0.4283
     34 H16        -7.4361   -1.7510   -4.2946 H         1 <0>         0.0885
     35 H17        -7.4495   -3.3362   -3.4844 H         1 <0>         0.0845
     36 H18        -9.7437   -2.6443   -4.1206 H         1 <0>         0.0874
     37 H19        -9.5730   -2.7382   -2.3514 H         1 <0>         0.0741
     38 H20        -9.3714   -0.1947   -4.0265 H         1 <0>         0.0725
     39 H21       -10.7625   -0.6687   -3.0226 H         1 <0>         0.0807
     40 H22        -7.0100    0.2476   -1.1831 H         1 <0>         0.0836
     41 H23        -7.1798    0.3384   -2.9529 H         1 <0>         0.0897
     42 H24       -10.5067    1.4224   -1.6801 H         1 <0>         0.0679
     43 H25        -8.9455    1.8034   -0.9149 H         1 <0>         0.0604
     44 H26        -9.1157    1.8967   -2.6842 H         1 <0>         0.0607
     45 H27        -8.3916   -1.8698   -0.4169 H         1 <0>         0.1641
     46 H28        -7.8830   -3.4390   -1.1401 H         1 <0>         0.1399
     47 H29        -5.2063   -1.5949   -3.1397 H         1 <0>         0.4256
@<TRIPOS>BOND
     1    1    2 1
     2    1   21 1
     3    1   22 1
     4    1   23 1
     5    2    3 1
     6    2   24 1
     7    2   25 1
     8    3    4 1
     9    3   26 1
    10    3   27 1
    11    4    5 1
    12    4   28 1
    13    4   29 1
    14    5    6 1
    15    5    7 1
    16    5    8 1
    17    7   30 1
    18    7   31 1
    19    7   32 1
    20    8    9 1
    21    8   33 1
    22    9   20 1
    23    9   10 2
    24   10   11 1
    25   10   47 1
    26   11   17 1
    27   11   12 1
    28   11   19 1
    29   12   13 1
    30   12   34 1
    31   12   35 1
    32   13   14 1
    33   13   36 1
    34   13   37 1
    35   14   15 1
    36   14   38 1
    37   14   39 1
    38   15   16 1
    39   15   17 1
    40   15   18 1
    41   17   40 1
    42   17   41 1
    43   18   42 1
    44   18   43 1
    45   18   44 1
    46   19   20 1
    47   19   45 1
    48   19   46 1
@<TRIPOS>MOLECULE
ZINC43976813
   54    55     0     0     0
SMALL
USER_CHARGES

@<TRIPOS>ATOM
      1 C1         -0.6605    1.2529    1.3542 C.3       1 <0>        -0.1566
      2 C2         -0.3587   -0.1522    0.8293 C.3       1 <0>        -0.1221
      3 C3          0.3001   -0.9791    1.9352 C.3       1 <0>         0.0479
      4 N1          0.5898   -2.3282    1.4313 N.3       1 <0>        -0.6947
      5 C4          1.3276   -3.1154    2.4283 C.3       1 <0>         0.0672
      6 H1          2.0265   -2.4678    2.9577 H         1 <0>         0.1005
      7 C5          0.3422   -3.7265    3.4265 C.3       1 <0>        -0.1461
      8 C6         -0.6388   -4.6355    2.6833 C.3       1 <0>        -0.1298
      9 C7          0.1341   -5.7532    1.9802 C.3       1 <0>        -0.1176
     10 C8          1.1195   -5.1421    0.9820 C.3       1 <0>        -0.1414
     11 C9          2.1005   -4.2331    1.7252 C.3       1 <0>         0.0327
     12 H2          2.6480   -4.8172    2.4650 H         1 <0>         0.1387
     13 N2          3.0466   -3.6464    0.7668 N.4       1 <0>        -0.3708
     14 C10         2.3025   -2.9796   -0.3100 C.3       1 <0>        -0.0699
     15 C11         3.8875   -4.7075    0.1967 C.3       1 <0>         0.0246
     16 H3          3.2630   -5.4062   -0.3599 H         1 <0>         0.1345
     17 C12         4.6045   -5.4516    1.3251 C.3       1 <0>        -0.1430
     18 C13         5.4802   -6.5567    0.7313 C.3       1 <0>        -0.1157
     19 C14         6.5155   -5.9370   -0.2095 C.3       1 <0>        -0.1323
     20 C15         5.7985   -5.1929   -1.3378 C.3       1 <0>        -0.1132
     21 C16         4.9227   -4.0877   -0.7440 C.3       1 <0>        -0.1062
     22 H4          4.4119   -3.5576   -1.5478 H         1 <0>         0.0950
     23 C17         5.7993   -3.1069    0.0374 C.3       1 <0>        -0.1724
     24 H5          0.2683    1.7329    1.6624 H         1 <0>         0.0569
     25 H6         -1.1299    1.8420    0.5663 H         1 <0>         0.0631
     26 H7         -1.3350    1.1848    2.2077 H         1 <0>         0.0567
     27 H8         -1.2876   -0.6322    0.5211 H         1 <0>         0.0645
     28 H9          0.3157   -0.0841   -0.0243 H         1 <0>         0.0697
     29 H10         1.2289   -0.4992    2.2435 H         1 <0>         0.0779
     30 H11        -0.3744   -1.0472    2.7888 H         1 <0>         0.0461
     31 H12        -0.2576   -2.8000    1.1531 H         1 <0>         0.3562
     32 H13         0.8897   -4.3106    4.1662 H         1 <0>         0.0813
     33 H14        -0.2084   -2.9302    3.9273 H         1 <0>         0.0830
     34 H15        -1.3408   -5.0709    3.3944 H         1 <0>         0.0821
     35 H16        -1.1862   -4.0514    1.9435 H         1 <0>         0.0674
     36 H17         0.6816   -6.3373    2.7200 H         1 <0>         0.0744
     37 H18        -0.5647   -6.4008    1.4508 H         1 <0>         0.0849
     38 H19         1.6701   -5.9384    0.4812 H         1 <0>         0.0850
     39 H20         0.5721   -4.5580    0.2423 H         1 <0>         0.0949
     40 H21         1.5131   -3.6399   -0.6691 H         1 <0>         0.1172
     41 H22         1.8608   -2.0584    0.0700 H         1 <0>         0.1643
     42 H23         2.9815   -2.7456   -1.1300 H         1 <0>         0.1051
     43 H24         5.2289   -4.7528    1.8817 H         1 <0>         0.0871
     44 H25         3.8669   -5.8931    1.9952 H         1 <0>         0.0847
     45 H26         5.9911   -7.0868    1.5351 H         1 <0>         0.0828
     46 H27         4.8558   -7.2555    0.1746 H         1 <0>         0.0729
     47 H28         7.1400   -5.2382    0.3472 H         1 <0>         0.0725
     48 H29         7.1394   -6.7243   -0.6325 H         1 <0>         0.0780
     49 H30         6.5361   -4.7513   -2.0080 H         1 <0>         0.0835
     50 H31         5.1740   -5.8916   -1.8944 H         1 <0>         0.0735
     51 H32         6.3101   -3.6370    0.8412 H         1 <0>         0.0768
     52 H33         6.5368   -2.6653   -0.6328 H         1 <0>         0.0831
     53 H34         5.1754   -2.3195    0.4604 H         1 <0>         0.0494
     54 H35         3.6300   -2.9725    1.2398 H         1 <0>         0.4157
@<TRIPOS>BOND
     1    1    2 1
     2    1   24 1
     3    1   25 1
     4    1   26 1
     5    2    3 1
     6    2   27 1
     7    2   28 1
     8    3    4 1
     9    3   29 1
    10    3   30 1
    11    4    5 1
    12    4   31 1
    13    5    6 1
    14    5   11 1
    15    5    7 1
    16    7    8 1
    17    7   32 1
    18    7   33 1
    19    8    9 1
    20    8   34 1
    21    8   35 1
    22    9   10 1
    23    9   36 1
    24    9   37 1
    25   10   11 1
    26   10   38 1
    27   10   39 1
    28   11   12 1
    29   11   13 1
    30   13   14 1
    31   13   15 1
    32   13   54 1
    33   14   40 1
    34   14   41 1
    35   14   42 1
    36   15   16 1
    37   15   21 1
    38   15   17 1
    39   17   18 1
    40   17   43 1
    41   17   44 1
    42   18   19 1
    43   18   45 1
    44   18   46 1
    45   19   20 1
    46   19   47 1
    47   19   48 1
    48   20   21 1
    49   20   49 1
    50   20   50 1
    51   21   22 1
    52   21   23 1
    53   23   51 1
    54   23   52 1
    55   23   53 1
@<TRIPOS>MOLECULE
ZINC04152423
   39    40     0     0     0
SMALL
USER_CHARGES
3,4-dichloro-5-(2-isopropyl-5-methyl-cyclohexoxy)-5H-furan-2-one
@<TRIPOS>ATOM
      1 C1          1.2202    3.6747   -3.2174 C.3       1 <0>        -0.1489
      2 C2          2.5793    4.3773   -3.2045 C.3       1 <0>        -0.0848
      3 H1          2.5005    5.3303   -3.7277 H         1 <0>         0.0667
      4 C3          3.6158    3.4957   -3.9040 C.3       1 <0>        -0.1157
      5 C4          3.7263    2.1580   -3.1696 C.3       1 <0>        -0.1173
      6 C5          4.1593    2.4045   -1.7230 C.3       1 <0>        -0.0753
      7 H2          5.1275    2.9051   -1.7139 H         1 <0>         0.0870
      8 C6          3.1228    3.2861   -1.0236 C.3       1 <0>         0.0903
      9 H3          3.4312    3.4618    0.0070 H         1 <0>         0.0739
     10 C7          3.0123    4.6238   -1.7579 C.3       1 <0>        -0.1400
     11 O1          1.8534    2.6299   -1.0356 O.3       1 <0>        -0.3285
     12 C8          1.0218    2.9525    0.0808 C.3       1 <0>         0.2687
     13 H4          1.5869    2.8637    1.0086 H         1 <0>         0.1406
     14 C9         -0.1812    2.0388    0.1147 C.2       1 <0>        -0.0388
     15 C10        -1.2607    2.8153   -0.0013 C.2       1 <0>        -0.1358
     16 C11        -0.8462    4.2152   -0.1035 C.2       1 <0>         0.5219
     17 O2         -1.6029    5.1599   -0.2161 O.2       1 <0>        -0.4103
     18 O3          0.4965    4.3023   -0.0590 O.3       1 <0>        -0.3134
     19 Cl1        -2.9026    2.2520   -0.0243 Cl        1 <0>         0.0246
     20 Cl2        -0.1627    0.3097    0.2678 Cl        1 <0>         0.0385
     21 C12         4.2698    1.0668   -0.9887 C.3       1 <0>        -0.0936
     22 C13         5.3064    0.1852   -1.6881 C.3       1 <0>        -0.1497
     23 C14         4.7028    1.3134    0.4579 C.3       1 <0>        -0.1510
     24 H5          1.3389    2.6475   -2.8725 H         1 <0>         0.0827
     25 H6          0.5321    4.2024   -2.5570 H         1 <0>         0.0433
     26 H7          0.8213    3.6735   -4.2318 H         1 <0>         0.0429
     27 H8          4.5840    3.9962   -3.8948 H         1 <0>         0.0602
     28 H9          3.3073    3.3200   -4.9345 H         1 <0>         0.0628
     29 H10         4.4648    1.5299   -3.6679 H         1 <0>         0.0663
     30 H11         2.7581    1.6574   -3.1788 H         1 <0>         0.0744
     31 H12         2.2738    5.2519   -1.2597 H         1 <0>         0.0763
     32 H13         3.9805    5.1244   -1.7488 H         1 <0>         0.0748
     33 H14         3.3016    0.5662   -0.9979 H         1 <0>         0.0784
     34 H15         5.3851   -0.7678   -1.1650 H         1 <0>         0.0542
     35 H16         4.9979    0.0095   -2.7187 H         1 <0>         0.0588
     36 H17         6.2746    0.6857   -1.6790 H         1 <0>         0.0537
     37 H18         3.9644    1.9414    0.9561 H         1 <0>         0.0491
     38 H19         4.7815    0.3604    0.9810 H         1 <0>         0.0572
     39 H20         5.6710    1.8139    0.4670 H         1 <0>         0.0558
@<TRIPOS>BOND
     1    1    2 1
     2    1   24 1
     3    1   25 1
     4    1   26 1
     5    2    3 1
     6    2   10 1
     7    2    4 1
     8    4    5 1
     9    4   27 1
    10    4   28 1
    11    5    6 1
    12    5   29 1
    13    5   30 1
    14    6    7 1
    15    6    8 1
    16    6   21 1
    17    8    9 1
    18    8   10 1
    19    8   11 1
    20   10   31 1
    21   10   32 1
    22   11   12 1
    23   12   13 1
    24   12   18 1
    25   12   14 1
    26   14   15 2
    27   14   20 1
    28   15   16 1
    29   15   19 1
    30   16   17 2
    31   16   18 1
    32   21   22 1
    33   21   23 1
    34   21   33 1
    35   22   34 1
    36   22   35 1
    37   22   36 1
    38   23   37 1
    39   23   38 1
    40   23   39 1
@<TRIPOS>MOLECULE
ZINC11850877
   40    42     0     0     0
SMALL
USER_CHARGES
7-chloro-8-methyl-2-(4-methyl-1-piperidyl)quinoline-3-carbaldehyde
@<TRIPOS>ATOM
      1 C1         -4.4227    2.1938    0.2012 C.3       1 <0>        -0.1126
      2 C2         -4.6430    0.7527   -0.1804 C.ar      1 <0>        -0.0572
      3 C3         -5.8927    0.3151   -0.5053 C.ar      1 <0>        -0.0126
      4 C4         -6.1193   -1.0136   -0.8618 C.ar      1 <0>        -0.1109
      5 C5         -5.0959   -1.9108   -0.8952 C.ar      1 <0>        -0.0761
      6 C6         -3.7944   -1.4941   -0.5658 C.ar      1 <0>        -0.1183
      7 C7         -3.5616   -0.1427   -0.2027 C.ar      1 <0>         0.1723
      8 N1         -2.3275    0.2691    0.1129 N.ar      1 <0>        -0.5047
      9 C8         -1.3001   -0.5520    0.0982 C.ar      1 <0>         0.3747
     10 C9         -1.4529   -1.9150   -0.2596 C.ar      1 <0>        -0.2106
     11 C10        -2.7171   -2.3954   -0.5903 C.ar      1 <0>         0.0029
     12 C11        -0.2919   -2.8116   -0.2755 C.2       1 <0>         0.3737
     13 O1          0.8198   -2.3681   -0.0780 O.2       1 <0>        -0.4078
     14 N2         -0.0474   -0.0758    0.4325 N.pl3     1 <0>        -0.4734
     15 C12         0.3945    0.9541   -0.5164 C.3       1 <0>         0.0680
     16 C13         1.8383    1.3529   -0.2027 C.3       1 <0>        -0.1097
     17 C14         1.9154    1.8861    1.2306 C.3       1 <0>        -0.0937
     18 C15         1.4043    0.8118    2.1946 C.3       1 <0>        -0.1098
     19 C16        -0.0269    0.4287    1.8114 C.3       1 <0>         0.0653
     20 C17         3.3670    2.2296    1.5709 C.3       1 <0>        -0.1462
     21 Cl1        -7.2230    1.4300   -0.4741 Cl        1 <0>        -0.0520
     22 H1         -4.1958    2.7756   -0.6922 H         1 <0>         0.0777
     23 H2         -5.3239    2.5869    0.6716 H         1 <0>         0.0743
     24 H3         -3.5890    2.2612    0.9001 H         1 <0>         0.0807
     25 H4         -7.1188   -1.3349   -1.1148 H         1 <0>         0.1422
     26 H5         -5.2830   -2.9375   -1.1732 H         1 <0>         0.1448
     27 H6         -2.8645   -3.4301   -0.8625 H         1 <0>         0.1565
     28 H7         -0.4269   -3.8666   -0.4630 H         1 <0>         0.1043
     29 H8          0.3387    0.5607   -1.5314 H         1 <0>         0.0706
     30 H9         -0.2507    1.8284   -0.4299 H         1 <0>         0.0473
     31 H10         2.4862    0.4821   -0.3024 H         1 <0>         0.0765
     32 H11         2.1607    2.1286   -0.8973 H         1 <0>         0.0689
     33 H12         1.2986    2.7802    1.3214 H         1 <0>         0.0668
     34 H13         1.4167    1.2009    3.2127 H         1 <0>         0.0691
     35 H14         2.0454   -0.0675    2.1326 H         1 <0>         0.0755
     36 H15        -0.6702    1.3055    1.8870 H         1 <0>         0.0480
     37 H16        -0.3886   -0.3463    2.4871 H         1 <0>         0.0703
     38 H17         3.9834    1.3355    1.4777 H         1 <0>         0.0565
     39 H18         3.7300    2.9943    0.8842 H         1 <0>         0.0543
     40 H19         3.4218    2.6037    2.5932 H         1 <0>         0.0542
@<TRIPOS>BOND
     1    1    2 1
     2    1   22 1
     3    1   23 1
     4    1   24 1
     5    2    7 ar
     6    2    3 ar
     7    3    4 ar
     8    3   21 1
     9    4    5 ar
    10    4   25 1
    11    5    6 ar
    12    5   26 1
    13    6   11 ar
    14    6    7 ar
    15    7    8 ar
    16    8    9 ar
    17    9   10 ar
    18    9   14 1
    19   10   11 ar
    20   10   12 1
    21   11   27 1
    22   12   13 2
    23   12   28 1
    24   14   19 1
    25   14   15 1
    26   15   16 1
    27   15   29 1
    28   15   30 1
    29   16   17 1
    30   16   31 1
    31   16   32 1
    32   17   18 1
    33   17   20 1
    34   17   33 1
    35   18   19 1
    36   18   34 1
    37   18   35 1
    38   19   36 1
    39   19   37 1
    40   20   38 1
    41   20   39 1
    42   20   40 1
@<TRIPOS>MOLECULE
ZINC14450308
   48    49     0     0     0
SMALL
USER_CHARGES
[(1R,2S,8aS)-7-isopropylidene-1,8a-dimethyl-6-oxo-2,3,4,8-tetrahydro-1H-naphthalen-2-yl] 2-methylprop-2-enoate
@<TRIPOS>ATOM
      1 C1          0.5376    3.2785   -1.3881 C.3       1 <0>        -0.1576
      2 C2         -0.8426    2.6692   -1.1339 C.3       1 <0>        -0.0737
      3 H1         -1.5016    2.8780   -1.9896 H         1 <0>         0.0896
      4 C3         -0.7065    1.1563   -0.9618 C.3       1 <0>         0.0916
      5 H2         -1.6863    0.6935   -0.7723 H         1 <0>         0.0928
      6 C4          0.2692    0.8628    0.1804 C.3       1 <0>        -0.1376
      7 C5         -0.3222    1.3827    1.4924 C.3       1 <0>        -0.0943
      8 C6         -0.6521    2.8588    1.3314 C.2       1 <0>        -0.0213
      9 C7         -0.2275    3.6758    2.2896 C.2       1 <0>        -0.2307
     10 C8         -0.5332    5.1193    2.2348 C.2       1 <0>         0.4295
     11 O1          0.0532    5.9396    2.9160 O.2       1 <0>        -0.4493
     12 C9         -1.6136    5.4935    1.2832 C.2       1 <0>        -0.2166
     13 C10        -2.5523    6.3882    1.5853 C.2       1 <0>        -0.0454
     14 C11        -2.6263    6.9621    2.9768 C.3       1 <0>        -0.1353
     15 C12        -3.5408    6.8269    0.5358 C.3       1 <0>        -0.1277
     16 C13        -1.5689    4.7856   -0.0512 C.3       1 <0>        -0.0704
     17 C14        -1.4450    3.2832    0.1349 C.3       1 <0>        -0.0170
     18 C15        -2.8628    2.7299    0.2919 C.3       1 <0>        -0.1518
     19 O2         -0.2032    0.5712   -2.1916 O.3       1 <0>        -0.3449
     20 C16        -0.5811   -0.6930   -2.4674 C.2       1 <0>         0.5010
     21 O3         -1.3113   -1.2899   -1.7008 O.2       1 <0>        -0.5097
     22 C17        -0.1101   -1.3495   -3.6948 C.2       1 <0>        -0.1640
     23 C18        -0.4833   -2.5976   -3.9671 C.2       1 <0>        -0.0939
     24 C19         0.7953   -0.6094   -4.6453 C.3       1 <0>        -0.1138
     25 H3          0.9706    2.8384   -2.2985 H         1 <0>         0.0687
     26 H4          1.1945    3.0686   -0.5311 H         1 <0>         0.0621
     27 H5          0.4399    4.3665   -1.5174 H         1 <0>         0.0643
     28 H6          0.4326   -0.2226    0.2533 H         1 <0>         0.0756
     29 H7          1.2274    1.3653   -0.0177 H         1 <0>         0.0846
     30 H8         -1.2372    0.8204    1.7304 H         1 <0>         0.0884
     31 H9          0.4103    1.2510    2.3024 H         1 <0>         0.0870
     32 H10         0.3568    3.2782    3.1325 H         1 <0>         0.1379
     33 H11        -3.4592    7.6784    3.0342 H         1 <0>         0.0685
     34 H12        -1.6830    7.4769    3.2117 H         1 <0>         0.0855
     35 H13        -2.7907    6.1499    3.7001 H         1 <0>         0.0696
     36 H14        -4.2328    7.5640    0.9692 H         1 <0>         0.0700
     37 H15        -4.1094    5.9549    0.1804 H         1 <0>         0.0759
     38 H16        -3.0017    7.2820   -0.3082 H         1 <0>         0.0766
     39 H17        -2.4926    4.9973   -0.6097 H         1 <0>         0.0871
     40 H18        -0.7023    5.1428   -0.6269 H         1 <0>         0.0861
     41 H19        -3.3235    3.1532    1.1967 H         1 <0>         0.0647
     42 H20        -2.8211    1.6342    0.3799 H         1 <0>         0.0624
     43 H21        -3.4631    3.0045   -0.5880 H         1 <0>         0.0670
     44 H22        -0.1307   -3.0890   -4.8859 H         1 <0>         0.1295
     45 H23        -1.1443   -3.1378   -3.2734 H         1 <0>         0.1210
     46 H24         1.0397   -1.2584   -5.4992 H         1 <0>         0.0706
     47 H25         1.7212   -0.3256   -4.1236 H         1 <0>         0.0737
     48 H26         0.2859    0.2960   -5.0069 H         1 <0>         0.0737
@<TRIPOS>BOND
     1    1    2 1
     2    1   25 1
     3    1   26 1
     4    1   27 1
     5    2    3 1
     6    2   17 1
     7    2    4 1
     8    4    5 1
     9    4    6 1
    10    4   19 1
    11    6    7 1
    12    6   28 1
    13    6   29 1
    14    7    8 1
    15    7   30 1
    16    7   31 1
    17    8   17 1
    18    8    9 2
    19    9   10 1
    20    9   32 1
    21   10   11 2
    22   10   12 1
    23   12   13 2
    24   12   16 1
    25   13   14 1
    26   13   15 1
    27   14   33 1
    28   14   34 1
    29   14   35 1
    30   15   36 1
    31   15   37 1
    32   15   38 1
    33   16   17 1
    34   16   39 1
    35   16   40 1
    36   17   18 1
    37   18   41 1
    38   18   42 1
    39   18   43 1
    40   19   20 1
    41   20   21 2
    42   20   22 1
    43   22   23 2
    44   22   24 1
    45   23   44 1
    46   23   45 1
    47   24   46 1
    48   24   47 1
    49   24   48 1
@<TRIPOS>MOLECULE
ZINC40730060
   50    51     0     0     0
SMALL
USER_CHARGES

@<TRIPOS>ATOM
      1 C1         -0.0187    1.5258    0.0104 C.3       1 <0>        -0.1574
      2 C2          0.0021   -0.0041    0.0020 C.3       1 <0>        -0.1133
      3 C3          0.7421   -0.5109    1.2415 C.3       1 <0>        -0.0568
      4 C4          2.1775    0.0187    1.2307 C.3       1 <0>        -0.1497
      5 C5          0.0259   -0.0175    2.5003 C.3       1 <0>        -0.1445
      6 C6          0.7628   -2.0407    1.2331 C.3       1 <0>        -0.0865
      7 H1         -0.2598   -2.4180    1.2409 H         1 <0>         0.1068
      8 C7          1.4790   -2.5342   -0.0257 C.3       1 <0>        -0.1075
      9 C8          1.4997   -4.0640   -0.0341 C.3       1 <0>        -0.1219
     10 C9          2.2397   -4.5708    1.2054 C.3       1 <0>         0.0000
     11 H2          3.2623   -4.1935    1.1977 H         1 <0>         0.1283
     12 C10         1.5236   -4.0774    2.4642 C.3       1 <0>         0.1731
     13 H3          2.0507   -4.4385    3.3473 H         1 <0>         0.1068
     14 C11         1.5028   -2.5476    2.4727 C.3       1 <0>        -0.1241
     15 N1          0.1492   -4.5845    2.4746 N.pl3     1 <0>        -0.3636
     16 C12        -0.3994   -5.3719    3.4234 C.2       1 <0>         0.0853
     17 C13        -1.6811   -5.6171    3.0655 C.2       1 <0>        -0.2357
     18 C14        -1.9242   -4.9570    1.8566 C.2       1 <0>         0.0742
     19 N2         -0.8295   -4.3327    1.5045 N.2       1 <0>        -0.2795
     20 C15        -3.2244   -4.9588    1.0947 C.3       1 <0>        -0.0735
     21 C16        -2.6714   -6.4542    3.8333 C.3       1 <0>        -0.0724
     22 C17         0.2918   -5.8863    4.6598 C.3       1 <0>        -0.0943
     23 C18         2.2597   -6.0427    1.1973 C.1       1 <0>         0.2024
     24 N3          2.2751   -7.1786    1.1911 N.1       1 <0>        -0.4207
     25 H4          1.0039    1.9031    0.0027 H         1 <0>         0.0560
     26 H5         -0.5459    1.8868   -0.8726 H         1 <0>         0.0505
     27 H6         -0.5289    1.8773    0.9072 H         1 <0>         0.0552
     28 H7         -1.0205   -0.3814    0.0098 H         1 <0>         0.0605
     29 H8          0.5123   -0.3556   -0.8948 H         1 <0>         0.0642
     30 H9          2.1627    1.1086    1.2367 H         1 <0>         0.0558
     31 H10         2.7046   -0.3424    2.1137 H         1 <0>         0.0545
     32 H11         2.6876   -0.3328    0.3339 H         1 <0>         0.0582
     33 H12        -0.9967   -0.3948    2.5081 H         1 <0>         0.0522
     34 H13         0.5531   -0.3786    3.3834 H         1 <0>         0.0530
     35 H14         0.0111    1.0724    2.5063 H         1 <0>         0.0565
     36 H15         0.9518   -2.1731   -0.9087 H         1 <0>         0.0731
     37 H16         2.5015   -2.1569   -0.0334 H         1 <0>         0.0642
     38 H17         0.4771   -4.4413   -0.0263 H         1 <0>         0.1021
     39 H18         2.0099   -4.4155   -0.9309 H         1 <0>         0.0674
     40 H19         2.5254   -2.1703    2.4649 H         1 <0>         0.0883
     41 H20         0.9926   -2.1961    3.3695 H         1 <0>         0.0782
     42 H21        -3.8419   -4.1246    1.4278 H         1 <0>         0.0759
     43 H22        -3.0210   -4.8572    0.0286 H         1 <0>         0.0712
     44 H23        -3.7508   -5.8958    1.2765 H         1 <0>         0.0753
     45 H24        -3.2143   -5.8218    4.5358 H         1 <0>         0.0600
     46 H25        -3.3751   -6.9130    3.1387 H         1 <0>         0.0619
     47 H26        -2.1412   -7.2334    4.3808 H         1 <0>         0.0578
     48 H27         0.1547   -5.1757    5.4750 H         1 <0>         0.0815
     49 H28        -0.1356   -6.8487    4.9411 H         1 <0>         0.0853
     50 H29         1.3561   -6.0065    4.4577 H         1 <0>         0.0657
@<TRIPOS>BOND
     1    1    2 1
     2    1   25 1
     3    1   26 1
     4    1   27 1
     5    2    3 1
     6    2   28 1
     7    2   29 1
     8    3    4 1
     9    3    5 1
    10    3    6 1
    11    4   30 1
    12    4   31 1
    13    4   32 1
    14    5   33 1
    15    5   34 1
    16    5   35 1
    17    6    7 1
    18    6   14 1
    19    6    8 1
    20    8    9 1
    21    8   36 1
    22    8   37 1
    23    9   10 1
    24    9   38 1
    25    9   39 1
    26   10   11 1
    27   10   12 1
    28   10   23 1
    29   12   13 1
    30   12   14 1
    31   12   15 1
    32   14   40 1
    33   14   41 1
    34   15   19 1
    35   15   16 1
    36   16   17 2
    37   16   22 1
    38   17   18 1
    39   17   21 1
    40   18   19 2
    41   18   20 1
    42   20   42 1
    43   20   43 1
    44   20   44 1
    45   21   45 1
    46   21   46 1
    47   21   47 1
    48   22   48 1
    49   22   49 1
    50   22   50 1
    51   23   24 3
@<TRIPOS>MOLECULE
ZINC05529170
   45    46     0     0     0
SMALL
USER_CHARGES

@<TRIPOS>ATOM
      1 C1         -0.4063    1.4565    0.2791 C.3       1 <0>        -0.1896
      2 C2         -0.1906   -0.0526    0.1487 C.3       1 <0>         0.1523
      3 H1         -1.1295   -0.5734    0.3361 H         1 <0>         0.0757
      4 C3          0.3056   -0.3802   -1.2631 C.3       1 <0>        -0.1284
      5 C4          0.6517   -1.8687   -1.3452 C.3       1 <0>        -0.1198
      6 C5          1.7720   -2.1892   -0.3530 C.3       1 <0>        -0.1328
      7 C6          1.2924   -1.8820    1.0691 C.3       1 <0>         0.1149
      8 N1          0.8190   -0.4917    1.1216 N.pl3     1 <0>        -0.9930
      9 S1          1.4150    0.5610    2.2525 S.o2      1 <0>         2.6883
     10 O1          2.6208   -0.0092    2.7426 O.2       1 <0>        -0.9596
     11 O2          1.3668    1.8552    1.6679 O.2       1 <0>        -0.9514
     12 C7          0.2803    0.5748    3.6005 C.ar      1 <0>        -0.6813
     13 C8         -0.7708    1.4726    3.6099 C.ar      1 <0>        -0.0237
     14 C9         -1.6610    1.4834    4.6674 C.ar      1 <0>        -0.1363
     15 C10        -1.5004    0.5962    5.7152 C.ar      1 <0>        -0.0128
     16 C11        -0.4498   -0.3022    5.7053 C.ar      1 <0>        -0.1420
     17 C12         0.4379   -0.3159    4.6458 C.ar      1 <0>        -0.0173
     18 C13        -2.4703    0.6087    6.8686 C.3       1 <0>        -0.0387
     19 C14        -3.8810    0.3189    6.3518 C.3       1 <0>        -0.1399
     20 C15        -2.0690   -0.4630    7.8841 C.3       1 <0>        -0.1478
     21 C16        -2.4457    1.9829    7.5408 C.3       1 <0>        -0.1410
     22 H2          0.4928    1.9813   -0.0438 H         1 <0>         0.0997
     23 H3         -1.2473    1.7586   -0.3450 H         1 <0>         0.0705
     24 H4         -0.6180    1.7047    1.3192 H         1 <0>         0.0640
     25 H5         -0.4760   -0.1480   -1.9865 H         1 <0>         0.0764
     26 H6          1.1935    0.2124   -1.4834 H         1 <0>         0.0708
     27 H7         -0.2303   -2.4607   -1.1007 H         1 <0>         0.0644
     28 H8          0.9817   -2.1096   -2.3558 H         1 <0>         0.0671
     29 H9          2.0340   -3.2445   -0.4286 H         1 <0>         0.0774
     30 H10         2.6461   -1.5795   -0.5819 H         1 <0>         0.0690
     31 H11         0.4757   -2.5541    1.3325 H         1 <0>         0.0699
     32 H12         2.1173   -2.0140    1.7694 H         1 <0>         0.0958
     33 H13        -0.8963    2.1658    2.7913 H         1 <0>         0.1439
     34 H14        -2.4818    2.1853    4.6752 H         1 <0>         0.1319
     35 H15        -0.3242   -0.9951    6.5241 H         1 <0>         0.1374
     36 H16         1.2565   -1.0203    4.6363 H         1 <0>         0.1383
     37 H17        -3.8985   -0.6601    5.8729 H         1 <0>         0.0579
     38 H18        -4.5825    0.3280    7.1860 H         1 <0>         0.0638
     39 H19        -4.1669    1.0825    5.6284 H         1 <0>         0.0592
     40 H20        -1.0640   -0.2566    8.2522 H         1 <0>         0.0611
     41 H21        -2.7705   -0.4540    8.7183 H         1 <0>         0.0631
     42 H22        -2.0865   -1.4420    7.4052 H         1 <0>         0.0606
     43 H23        -2.7316    2.7464    6.8173 H         1 <0>         0.0594
     44 H24        -3.1472    1.9920    8.3750 H         1 <0>         0.0640
     45 H25        -1.4407    2.1894    7.9089 H         1 <0>         0.0586
@<TRIPOS>BOND
     1    1    2 1
     2    1   22 1
     3    1   23 1
     4    1   24 1
     5    2    3 1
     6    2    8 1
     7    2    4 1
     8    4    5 1
     9    4   25 1
    10    4   26 1
    11    5    6 1
    12    5   27 1
    13    5   28 1
    14    6    7 1
    15    6   29 1
    16    6   30 1
    17    7    8 1
    18    7   31 1
    19    7   32 1
    20    8    9 1
    21    9   10 2
    22    9   11 2
    23    9   12 1
    24   12   17 ar
    25   12   13 ar
    26   13   14 ar
    27   13   33 1
    28   14   15 ar
    29   14   34 1
    30   15   16 ar
    31   15   18 1
    32   16   17 ar
    33   16   35 1
    34   17   36 1
    35   18   19 1
    36   18   20 1
    37   18   21 1
    38   19   37 1
    39   19   38 1
    40   19   39 1
    41   20   40 1
    42   20   41 1
    43   20   42 1
    44   21   43 1
    45   21   44 1
    46   21   45 1
@<TRIPOS>MOLECULE
ZINC19887471
   30    31     0     0     0
SMALL
USER_CHARGES
6-ethyl-N-isopropyl-thieno[3,2-e]pyrimidin-4-amine
@<TRIPOS>ATOM
      1 C1         -1.5509   -1.2814    1.4531 C.3       1 <0>        -0.1520
      2 C2         -1.1686   -0.9530    0.0085 C.3       1 <0>        -0.0424
      3 C3          0.0021   -0.0041    0.0020 C.2       1 <0>        -0.1360
      4 C4          1.3103   -0.2996   -0.0121 C.2       1 <0>        -0.1164
      5 C5          2.2813    0.7805   -0.0155 C.ar      1 <0>        -0.2530
      6 C6          3.7025    0.7263   -0.0298 C.ar      1 <0>         0.4930
      7 N1          4.3912    1.8559   -0.0295 N.ar      1 <0>        -0.5918
      8 C7          3.8027    3.0387   -0.0172 C.ar      1 <0>         0.3647
      9 N2          2.4890    3.1535   -0.0044 N.ar      1 <0>        -0.5287
     10 C8          1.7255    2.0785   -0.0033 C.ar      1 <0>         0.1488
     11 S1         -0.0221    1.7787    0.0118 S.3       1 <0>         0.1000
     12 N3          4.3565   -0.4925   -0.0422 N.pl3     1 <0>        -0.7087
     13 C9          5.8207   -0.5379   -0.0568 C.3       1 <0>         0.1446
     14 C10         6.2959   -1.8634    0.5417 C.3       1 <0>        -0.1632
     15 C11         6.3202   -0.4211   -1.4983 C.3       1 <0>        -0.1633
     16 H1         -2.4054   -1.9740    1.4578 H         1 <0>         0.0667
     17 H2         -1.8265   -0.3554    1.9790 H         1 <0>         0.0603
     18 H3         -0.6956   -1.7509    1.9611 H         1 <0>         0.0587
     19 H4         -0.8930   -1.8790   -0.5174 H         1 <0>         0.0893
     20 H5         -2.0239   -0.4836   -0.4995 H         1 <0>         0.0838
     21 H6          1.6378   -1.3287   -0.0204 H         1 <0>         0.1330
     22 H7          4.4108    3.9312   -0.0179 H         1 <0>         0.2060
     23 H8          3.7772   -1.4276   -0.0411 H         1 <0>         0.4298
     24 H9          6.1774    0.3097    0.5468 H         1 <0>         0.0936
     25 H10         7.3953   -1.8974    0.5307 H         1 <0>         0.0764
     26 H11         5.8972   -2.6982   -0.0534 H         1 <0>         0.0617
     27 H12         5.9368   -1.9474    1.5780 H         1 <0>         0.0619
     28 H13         7.4196   -0.4552   -1.5093 H         1 <0>         0.0674
     29 H14         5.9786    0.5318   -1.9286 H         1 <0>         0.0608
     30 H15         5.9215   -1.2560   -2.0933 H         1 <0>         0.0549
@<TRIPOS>BOND
     1    1    2 1
     2    1   16 1
     3    1   17 1
     4    1   18 1
     5    2    3 1
     6    2   19 1
     7    2   20 1
     8    3   11 1
     9    3    4 2
    10    4    5 1
    11    4   21 1
    12    5   10 ar
    13    5    6 ar
    14    6    7 ar
    15    6   12 1
    16    7    8 ar
    17    8    9 ar
    18    8   22 1
    19    9   10 ar
    20   10   11 1
    21   12   13 1
    22   12   23 1
    23   13   14 1
    24   13   15 1
    25   13   24 1
    26   14   25 1
    27   14   26 1
    28   14   27 1
    29   15   28 1
    30   15   29 1
    31   15   30 1
@<TRIPOS>MOLECULE
ZINC37203099
   30    31     0     0     0
SMALL
USER_CHARGES

@<TRIPOS>ATOM
      1 C1         -0.0184    1.5028    0.0103 C.3       1 <0>        -0.0851
      2 C2          0.0021   -0.0041    0.0020 C.2       1 <0>         0.0805
      3 C3          0.0059   -0.7076   -1.1591 C.2       1 <0>        -0.2229
      4 S1          0.0324   -2.3789   -0.5312 S.3       1 <0>         0.1105
      5 C4          0.0357   -2.0088    1.1107 C.2       1 <0>         0.0393
      6 N1          0.0226   -0.6992    1.1217 N.2       1 <0>        -0.5112
      7 C5         -0.0083   -0.2146   -2.5831 C.3       1 <0>         0.2426
      8 H1         -0.2890    0.8385   -2.6003 H         1 <0>         0.1091
      9 C6          1.3844   -0.3811   -3.1944 C.3       1 <0>        -0.1681
     10 N2         -0.9782   -0.9913   -3.3592 N.pl3     1 <0>        -0.7342
     11 C7         -1.5578   -0.4417   -4.4971 C.ar      1 <0>         0.2665
     12 C8         -1.2156    0.8411   -4.9047 C.ar      1 <0>        -0.2016
     13 C9         -1.7923    1.3847   -6.0346 C.ar      1 <0>        -0.0375
     14 C10        -2.7151    0.6583   -6.7701 C.ar      1 <0>        -0.1779
     15 C11        -3.0672   -0.6160   -6.3814 C.ar      1 <0>        -0.0208
     16 C12        -2.4875   -1.1827   -5.2433 C.ar      1 <0>        -0.1133
     17 C13        -2.8441   -2.5088   -4.8374 C.1       1 <0>         0.2533
     18 N3         -3.1270   -3.5609   -4.5155 N.1       1 <0>        -0.4240
     19 H2          1.0042    1.8801    0.0026 H         1 <0>         0.0795
     20 H3         -0.5455    1.8639   -0.8728 H         1 <0>         0.0756
     21 H4         -0.5286    1.8543    0.9071 H         1 <0>         0.0787
     22 H5          0.0494   -2.6867    1.9513 H         1 <0>         0.2215
     23 H6          2.1061    0.1967   -2.6170 H         1 <0>         0.0735
     24 H7          1.6652   -1.4342   -3.1772 H         1 <0>         0.0634
     25 H8          1.3742   -0.0246   -4.2244 H         1 <0>         0.0747
     26 H9         -1.2160   -1.8890   -3.0790 H         1 <0>         0.4010
     27 H10        -0.4978    1.4141   -4.3365 H         1 <0>         0.1328
     28 H11        -1.5229    2.3827   -6.3474 H         1 <0>         0.1311
     29 H12        -3.1610    1.0933   -7.6524 H         1 <0>         0.1310
     30 H13        -3.7870   -1.1777   -6.9583 H         1 <0>         0.1320
@<TRIPOS>BOND
     1    1    2 1
     2    1   19 1
     3    1   20 1
     4    1   21 1
     5    2    6 1
     6    2    3 2
     7    3    4 1
     8    3    7 1
     9    4    5 1
    10    5    6 2
    11    5   22 1
    12    7    8 1
    13    7    9 1
    14    7   10 1
    15    9   23 1
    16    9   24 1
    17    9   25 1
    18   10   11 1
    19   10   26 1
    20   11   16 ar
    21   11   12 ar
    22   12   13 ar
    23   12   27 1
    24   13   14 ar
    25   13   28 1
    26   14   15 ar
    27   14   29 1
    28   15   16 ar
    29   15   30 1
    30   16   17 1
    31   17   18 3
@<TRIPOS>MOLECULE
ZINC41571079
   31    33     0     0     0
SMALL
USER_CHARGES

@<TRIPOS>ATOM
      1 C1         -0.0293    1.4904    0.0099 C.3       1 <0>        -0.1356
      2 C2          0.0065   -0.0161    0.0066 C.ar      1 <0>         0.0049
      3 C3         -0.0889   -0.7146   -1.1750 C.ar      1 <0>        -0.1785
      4 C4         -0.0558   -2.1004   -1.1755 C.ar      1 <0>         0.1689
      5 N1          0.0673   -2.7659   -0.0431 N.ar      1 <0>        -0.4499
      6 C5          0.1618   -2.1430    1.1100 C.ar      1 <0>         0.1090
      7 C6          0.1447   -0.7339    1.2178 C.ar      1 <0>        -0.1569
      8 C7          0.2682   -0.2227    2.5771 C.2       1 <0>         0.1174
      9 C8          0.3906   -1.0933    3.5943 C.2       1 <0>        -0.1662
     10 S1          0.3340   -2.6840    2.7925 S.3       1 <0>         0.0949
     11 N2          0.2598    1.1621    2.8213 N.am      1 <0>        -0.6592
     12 C9         -0.1252    1.6319    4.0244 C.2       1 <0>         0.5414
     13 O1         -0.3892    0.8589    4.9213 O.2       1 <0>        -0.5154
     14 C10        -0.2278    3.1175    4.2555 C.3       1 <0>        -0.1999
     15 C11         0.7865    3.7563    5.2063 C.3       1 <0>        -0.1497
     16 C12        -0.6703    3.5878    5.6425 C.3       1 <0>        -0.1422
     17 C13        -0.1614   -2.8516   -2.4777 C.3       1 <0>        -0.1058
     18 H1          0.9893    1.8781    0.0231 H         1 <0>         0.0856
     19 H2         -0.5410    1.8436   -0.8854 H         1 <0>         0.0852
     20 H3         -0.5623    1.8392    0.8945 H         1 <0>         0.0768
     21 H4         -0.1907   -0.1798   -2.1078 H         1 <0>         0.1442
     22 H5          0.4908   -0.8795    4.6482 H         1 <0>         0.2124
     23 H6          0.5312    1.7792    2.1238 H         1 <0>         0.4120
     24 H7         -0.5532    3.7054    3.3972 H         1 <0>         0.1275
     25 H8          1.5280    3.1020    5.6646 H         1 <0>         0.1020
     26 H9          1.1288    4.7647    4.9735 H         1 <0>         0.1088
     27 H10        -1.2864    4.4853    5.6968 H         1 <0>         0.1075
     28 H11        -0.8871    2.8227    6.3879 H         1 <0>         0.1108
     29 H12         0.8359   -3.0081   -2.8888 H         1 <0>         0.0856
     30 H13        -0.6380   -3.8162   -2.3031 H         1 <0>         0.0828
     31 H14        -0.7585   -2.2737   -3.1830 H         1 <0>         0.0816
@<TRIPOS>BOND
     1    1    2 1
     2    1   18 1
     3    1   19 1
     4    1   20 1
     5    2    7 ar
     6    2    3 ar
     7    3    4 ar
     8    3   21 1
     9    4    5 ar
    10    4   17 1
    11    5    6 ar
    12    6   10 1
    13    6    7 ar
    14    7    8 1
    15    8    9 2
    16    8   11 1
    17    9   10 1
    18    9   22 1
    19   11   12 am
    20   11   23 1
    21   12   13 2
    22   12   14 1
    23   14   16 1
    24   14   15 1
    25   14   24 1
    26   15   16 1
    27   15   25 1
    28   15   26 1
    29   16   27 1
    30   16   28 1
    31   17   29 1
    32   17   30 1
    33   17   31 1
@<TRIPOS>MOLECULE
ZINC44752693
   38    38     0     0     0
SMALL
USER_CHARGES

@<TRIPOS>ATOM
      1 C1         -0.0187    1.5258    0.0104 C.3       1 <0>        -0.1552
      2 C2          0.0021   -0.0041    0.0020 C.3       1 <0>        -0.1195
      3 C3         -1.4333   -0.5336    0.0129 C.3       1 <0>        -0.0956
      4 H1         -1.9862   -0.1019   -0.8214 H         1 <0>         0.0877
      5 C4         -2.1103   -0.1453    1.3289 C.3       1 <0>        -0.1166
      6 C5         -3.5456   -0.6748    1.3397 C.3       1 <0>        -0.1223
      7 C6         -3.5280   -2.1989    1.2056 C.3       1 <0>        -0.1185
      8 C7         -2.8510   -2.5872   -0.1103 C.3       1 <0>        -0.1327
      9 C8         -1.4157   -2.0577   -0.1212 C.3       1 <0>         0.1514
     10 H2         -0.9334   -2.3344   -1.0587 H         1 <0>         0.0908
     11 N1         -0.6726   -2.6380    1.0001 N.am      1 <0>        -0.7118
     12 C9         -0.0905   -3.8465    0.8693 C.2       1 <0>         0.5284
     13 O1         -0.1818   -4.4536   -0.1766 O.2       1 <0>        -0.5236
     14 C10         0.6740   -4.4434    2.0227 C.3       1 <0>         0.0197
     15 C11         1.8296   -3.5158    2.4033 C.3       1 <0>        -0.1432
     16 C12        -0.2613   -4.6114    3.2219 C.3       1 <0>        -0.1431
     17 C13         1.2085   -5.7573    1.6295 C.1       1 <0>         0.2205
     18 N2          1.6211   -6.7714    1.3261 N.1       1 <0>        -0.4048
     19 H3          1.0039    1.9031    0.0027 H         1 <0>         0.0542
     20 H4         -0.5459    1.8868   -0.8726 H         1 <0>         0.0544
     21 H5         -0.5289    1.8773    0.9072 H         1 <0>         0.0571
     22 H6          0.5123   -0.3556   -0.8948 H         1 <0>         0.0638
     23 H7          0.5293   -0.3651    0.8851 H         1 <0>         0.0621
     24 H8         -1.5574   -0.5770    2.1631 H         1 <0>         0.0590
     25 H9         -2.1228    0.9405    1.4244 H         1 <0>         0.0709
     26 H10        -4.0279   -0.3982    2.2772 H         1 <0>         0.0635
     27 H11        -4.0985   -0.2431    0.5055 H         1 <0>         0.0639
     28 H12        -2.9751   -2.6306    2.0399 H         1 <0>         0.0614
     29 H13        -4.5506   -2.5761    1.2134 H         1 <0>         0.0626
     30 H14        -2.8385   -3.6730   -0.2059 H         1 <0>         0.0687
     31 H15        -3.4039   -2.1555   -0.9446 H         1 <0>         0.0735
     32 H16        -0.5995   -2.1524    1.8366 H         1 <0>         0.4009
     33 H17         1.4338   -2.5428    2.6944 H         1 <0>         0.0817
     34 H18         2.3825   -3.9475    3.2375 H         1 <0>         0.0817
     35 H19         2.4959   -3.3961    1.5490 H         1 <0>         0.0729
     36 H20        -1.0846   -5.2723    2.9508 H         1 <0>         0.0727
     37 H21         0.2916   -5.0432    4.0562 H         1 <0>         0.0817
     38 H22        -0.6571   -3.6385    3.5131 H         1 <0>         0.0817
@<TRIPOS>BOND
     1    1    2 1
     2    1   19 1
     3    1   20 1
     4    1   21 1
     5    2    3 1
     6    2   22 1
     7    2   23 1
     8    3    4 1
     9    3    9 1
    10    3    5 1
    11    5    6 1
    12    5   24 1
    13    5   25 1
    14    6    7 1
    15    6   26 1
    16    6   27 1
    17    7    8 1
    18    7   28 1
    19    7   29 1
    20    8    9 1
    21    8   30 1
    22    8   31 1
    23    9   10 1
    24    9   11 1
    25   11   12 am
    26   11   32 1
    27   12   13 2
    28   12   14 1
    29   14   15 1
    30   14   16 1
    31   14   17 1
    32   15   33 1
    33   15   34 1
    34   15   35 1
    35   16   36 1
    36   16   37 1
    37   16   38 1
    38   17   18 3
@<TRIPOS>MOLECULE
ZINC52831124
   25    26     0     0     0
SMALL
USER_CHARGES

@<TRIPOS>ATOM
      1 C1         -0.0187    1.5258    0.0104 C.3       1 <0>        -0.1697
      2 C2          0.0021   -0.0041    0.0020 C.3       1 <0>         0.2396
      3 H1          0.5123   -0.3556   -0.8948 H         1 <0>         0.1061
      4 C3         -1.4117   -0.5257    0.0127 C.2       1 <0>        -0.1593
      5 C4         -2.1568   -0.9920   -1.0186 C.2       1 <0>        -0.1315
      6 C5         -3.4470   -1.4244   -0.7724 C.2       1 <0>        -0.1387
      7 C6         -3.9280   -1.3685    0.4948 C.2       1 <0>        -0.1156
      8 S1         -2.5363   -0.6967    1.3887 S.3       1 <0>         0.1075
      9 Cl1        -5.4892   -1.8357    1.0931 Cl        1 <0>         0.0230
     10 N1          0.7106   -0.4894    1.1889 N.pl3     1 <0>        -0.7132
     11 C7          2.0963   -0.6033    1.1732 C.ar      1 <0>         0.3448
     12 C8          2.8155   -0.2510    0.0312 C.ar      1 <0>        -0.1841
     13 C9          4.1944   -0.3825    0.0670 C.ar      1 <0>        -0.0749
     14 C10         4.7746   -0.8562    1.2357 C.ar      1 <0>        -0.0138
     15 N2          4.0176   -1.1658    2.2691 N.ar      1 <0>        -0.2003
     16 N3          2.7403   -1.0418    2.2448 N.ar      1 <0>        -0.3056
     17 H2          1.0039    1.9031    0.0027 H         1 <0>         0.0707
     18 H3         -0.5459    1.8868   -0.8726 H         1 <0>         0.0772
     19 H4         -0.5289    1.8773    0.9072 H         1 <0>         0.0680
     20 H5         -1.7492   -1.0252   -2.0181 H         1 <0>         0.1452
     21 H6         -4.0622   -1.8003   -1.5765 H         1 <0>         0.1464
     22 H7          0.2131   -0.7312    1.9857 H         1 <0>         0.4098
     23 H8          2.3134    0.1125   -0.8532 H         1 <0>         0.1466
     24 H9          4.7998   -0.1244   -0.7893 H         1 <0>         0.1506
     25 H10         5.8467   -0.9713    1.2980 H         1 <0>         0.1713
@<TRIPOS>BOND
     1    1    2 1
     2    1   17 1
     3    1   18 1
     4    1   19 1
     5    2    3 1
     6    2    4 1
     7    2   10 1
     8    4    8 1
     9    4    5 2
    10    5    6 1
    11    5   20 1
    12    6    7 2
    13    6   21 1
    14    7    8 1
    15    7    9 1
    16   10   11 1
    17   10   22 1
    18   11   16 ar
    19   11   12 ar
    20   12   13 ar
    21   12   23 1
    22   13   14 ar
    23   13   24 1
    24   14   15 ar
    25   14   25 1
    26   15   16 ar
@<TRIPOS>MOLECULE
ZINC19787253
   48    50     0     0     0
SMALL
USER_CHARGES
3-[(2R)-1-[[5-(5-methyl-2-thienyl)-2H-pyrazol-3-yl]methyl]-2-piperidyl]propan-1-ol
@<TRIPOS>ATOM
      1 C1         -2.2204   -0.5454    1.3730 C.3       1 <0>        -0.0860
      2 C2         -0.9592    0.2644    1.2161 C.2       1 <0>        -0.1082
      3 C3          0.3310   -0.1572    1.2148 C.2       1 <0>        -0.1757
      4 C4          1.3396    0.7682    1.0539 C.2       1 <0>        -0.1072
      5 C5          1.0048    2.0864    0.9004 C.2       1 <0>        -0.1595
      6 S1         -0.7776    2.0251    0.9842 S.3       1 <0>         0.1106
      7 C6          1.8893    3.2570    0.7131 C.2       1 <0>         0.1921
      8 C7          1.4734    4.5957    0.5604 C.2       1 <0>        -0.2431
      9 C8          2.5785    5.3585    0.4165 C.2       1 <0>         0.0073
     10 N1          3.6562    4.5458    0.4645 N.2       1 <0>        -0.2775
     11 H1          3.7428    2.2772    0.7400 H         1 <0>         0.4857
     12 N2          3.2053    3.2327    0.6494 N.pl3     1 <0>        -0.4081
     13 C9          2.6047    6.8542    0.2343 C.3       1 <0>         0.0828
     14 N3          2.7855    7.5033    1.5397 N.4       1 <0>        -0.3951
     15 C10         4.0933    7.1682    2.1175 C.3       1 <0>        -0.0055
     16 C11         4.1881    7.7396    3.5340 C.3       1 <0>        -0.1446
     17 C12         4.0077    9.2592    3.4793 C.3       1 <0>        -0.1392
     18 C13         2.6594    9.5821    2.8294 C.3       1 <0>        -0.1424
     19 C14         2.6088    8.9573    1.4333 C.3       1 <0>         0.0388
     20 H2          3.4293    9.3406    0.8090 H         1 <0>         0.1345
     21 C15         1.2552    9.2604    0.7878 C.3       1 <0>        -0.1439
     22 C16         1.0936   10.7735    0.6286 C.3       1 <0>        -0.1214
     23 C17        -0.2987   11.0822    0.0744 C.3       1 <0>         0.0845
     24 O1         -0.4497   12.4954   -0.0743 O.3       1 <0>        -0.6049
     25 H3         -1.9612   -1.6072    1.4972 H         1 <0>         0.0909
     26 H4         -2.8482   -0.4234    0.4781 H         1 <0>         0.0867
     27 H5         -2.7722   -0.1967    2.2584 H         1 <0>         0.0863
     28 H6          0.5642   -1.2044    1.3386 H         1 <0>         0.1443
     29 H7          2.3745    0.4592    1.0495 H         1 <0>         0.1337
     30 H8          0.4526    4.9484    0.5589 H         1 <0>         0.1562
     31 H9          3.4376    7.1281   -0.4300 H         1 <0>         0.1405
     32 H10         1.6556    7.1859   -0.2119 H         1 <0>         0.1519
     33 H11         4.2082    6.0749    2.1552 H         1 <0>         0.1330
     34 H12         4.8908    7.5994    1.4945 H         1 <0>         0.1261
     35 H13         3.4000    7.2974    4.1612 H         1 <0>         0.0858
     36 H14         5.1735    7.5007    3.9606 H         1 <0>         0.1107
     37 H15         4.0333    9.6684    4.5000 H         1 <0>         0.0949
     38 H16         4.8200    9.7038    2.8855 H         1 <0>         0.0818
     39 H17         1.8470    9.1710    3.4467 H         1 <0>         0.0902
     40 H18         2.5429   10.6730    2.7492 H         1 <0>         0.1158
     41 H19         1.2046    8.7802   -0.2006 H         1 <0>         0.0917
     42 H20         0.4489    8.8707    1.4265 H         1 <0>         0.0926
     43 H21         1.2148   11.2602    1.6076 H         1 <0>         0.0837
     44 H22         1.8573   11.1527   -0.0664 H         1 <0>         0.0809
     45 H23        -0.4198   10.5955   -0.9046 H         1 <0>         0.0439
     46 H24        -1.0624   10.7030    0.7694 H         1 <0>         0.0444
     47 H25        -1.3917   12.9101   -0.4625 H         1 <0>         0.4224
     48 H26         2.0105    7.1202    2.2198 H         1 <0>         0.4377
@<TRIPOS>BOND
     1    1    2 1
     2    1   25 1
     3    1   26 1
     4    1   27 1
     5    2    6 1
     6    2    3 2
     7    3    4 1
     8    3   28 1
     9    4    5 2
    10    4   29 1
    11    5    6 1
    12    5    7 1
    13    7    8 2
    14    7   12 1
    15    8   30 1
    16    8    9 1
    17    9   13 1
    18    9   10 2
    19   10   12 1
    20   11   12 1
    21   13   14 1
    22   13   31 1
    23   13   32 1
    24   14   19 1
    25   14   15 1
    26   14   48 1
    27   15   16 1
    28   15   33 1
    29   15   34 1
    30   16   17 1
    31   16   35 1
    32   16   36 1
    33   17   18 1
    34   17   37 1
    35   17   38 1
    36   18   19 1
    37   18   39 1
    38   18   40 1
    39   19   20 1
    40   19   21 1
    41   21   22 1
    42   21   41 1
    43   21   42 1
    44   22   23 1
    45   22   43 1
    46   22   44 1
    47   23   24 1
    48   23   45 1
    49   23   46 1
    50   24   47 1
@<TRIPOS>MOLECULE
ZINC36880872
   42    43     0     0     0
SMALL
USER_CHARGES

@<TRIPOS>ATOM
      1 C1         -0.0187    1.5258    0.0104 C.3       1 <0>        -0.1568
      2 C2          0.0021   -0.0041    0.0020 C.3       1 <0>        -0.1512
      3 C3          0.7182   -0.4975   -1.2568 C.3       1 <0>        -0.0141
      4 N1          0.7381   -1.9663   -1.2649 N.4       1 <0>        -0.5088
      5 C4          1.4257   -2.4401   -2.4735 C.3       1 <0>         0.0222
      6 C5          2.8948   -2.0156   -2.4239 C.3       1 <0>        -0.1440
      7 C6          3.6110   -2.5090   -3.6827 C.3       1 <0>        -0.1224
      8 C7          3.5231   -4.0348   -3.7546 C.3       1 <0>         0.1444
      9 C8          2.0540   -4.4593   -3.8041 C.3       1 <0>        -0.1368
     10 C9          1.3378   -3.9659   -2.5453 C.3       1 <0>        -0.1418
     11 N2          4.1599   -4.6169   -2.5706 N.pl3     1 <0>        -1.1122
     12 S1          4.9872   -6.0462   -2.6937 S.o2      1 <0>         2.7271
     13 O1          5.5035   -6.3293   -1.4004 O.2       1 <0>        -0.9406
     14 O2          4.1378   -6.9485   -3.3891 O.2       1 <0>        -0.9366
     15 C10         6.3763   -5.7558   -3.7380 C.2       1 <0>        -0.7778
     16 C11         7.6277   -5.3588   -3.4025 C.2       1 <0>         0.0134
     17 C12         8.5693   -5.1928   -4.4014 C.2       1 <0>        -0.1792
     18 C13         8.2116   -5.4326   -5.6878 C.2       1 <0>        -0.0761
     19 S2          6.5020   -5.9160   -5.5116 S.3       1 <0>         0.2181
     20 Cl1         9.1695   -5.3085   -7.1302 Cl        1 <0>         0.0466
     21 H1          1.0039    1.9031    0.0027 H         1 <0>         0.0668
     22 H2         -0.5459    1.8868   -0.8726 H         1 <0>         0.0671
     23 H3         -0.5289    1.8773    0.9072 H         1 <0>         0.0778
     24 H4          0.5293   -0.3651    0.8851 H         1 <0>         0.0862
     25 H5         -1.0205   -0.3814    0.0098 H         1 <0>         0.0864
     26 H6          0.1910   -0.1364   -2.1398 H         1 <0>         0.1318
     27 H7          1.7408   -0.1202   -1.2645 H         1 <0>         0.1322
     28 H8          1.2261   -2.3006   -0.4474 H         1 <0>         0.4258
     29 H9          0.9519   -2.0070   -3.3544 H         1 <0>         0.1431
     30 H10         2.9574   -0.9286   -2.3728 H         1 <0>         0.0942
     31 H11         3.3686   -2.4487   -1.5430 H         1 <0>         0.0873
     32 H12         3.1372   -2.0760   -4.5637 H         1 <0>         0.0938
     33 H13         4.6576   -2.2066   -3.6475 H         1 <0>         0.0949
     34 H14         4.0333   -4.3863   -4.6513 H         1 <0>         0.1005
     35 H15         1.5802   -4.0262   -4.6850 H         1 <0>         0.0916
     36 H16         1.9914   -5.5463   -3.8552 H         1 <0>         0.1042
     37 H17         1.8117   -4.3989   -1.6644 H         1 <0>         0.0887
     38 H18         0.2912   -4.2683   -2.5806 H         1 <0>         0.0938
     39 H19         4.0970   -4.1651   -1.7145 H         1 <0>         0.4156
     40 H20         7.8857   -5.1743   -2.3701 H         1 <0>         0.1575
     41 H21         9.5737   -4.8769   -4.1613 H         1 <0>         0.1579
     42 H22        -0.2085   -2.3156   -1.2577 H         1 <0>         0.4294
@<TRIPOS>BOND
     1    1    2 1
     2    1   21 1
     3    1   22 1
     4    1   23 1
     5    2    3 1
     6    2   24 1
     7    2   25 1
     8    3    4 1
     9    3   26 1
    10    3   27 1
    11    4    5 1
    12    4   28 1
    13    4   42 1
    14    5   10 1
    15    5    6 1
    16    5   29 1
    17    6    7 1
    18    6   30 1
    19    6   31 1
    20    7    8 1
    21    7   32 1
    22    7   33 1
    23    8    9 1
    24    8   11 1
    25    8   34 1
    26    9   10 1
    27    9   35 1
    28    9   36 1
    29   10   37 1
    30   10   38 1
    31   11   12 1
    32   11   39 1
    33   12   13 2
    34   12   14 2
    35   12   15 1
    36   15   19 1
    37   15   16 2
    38   16   17 1
    39   16   40 1
    40   17   18 2
    41   17   41 1
    42   18   19 1
    43   18   20 1
@<TRIPOS>MOLECULE
ZINC44136130
   48    49     0     0     0
SMALL
USER_CHARGES

@<TRIPOS>ATOM
      1 C1         -0.0187    1.5258    0.0104 C.3       1 <0>        -0.1879
      2 C2          0.0021   -0.0041    0.0020 C.3       1 <0>         0.1361
      3 C3          0.7421   -0.5109    1.2415 C.3       1 <0>        -0.1894
      4 C4         -1.4333   -0.5336    0.0129 C.3       1 <0>        -0.1417
      5 O1          0.6709   -0.4649   -1.1737 O.3       1 <0>        -0.3601
      6 C5          1.9522   -0.0848   -1.3367 C.2       1 <0>         0.6544
      7 O2          2.4879    0.6189   -0.5034 O.2       1 <0>        -0.5354
      8 N1          2.6407   -0.4850   -2.4240 N.am      1 <0>        -0.5956
      9 C6          4.0414   -0.0834   -2.6128 C.3       1 <0>         0.1241
     10 C7          4.1858    0.5692   -3.9911 C.3       1 <0>        -0.0524
     11 H1          3.6133    1.4964   -4.0164 H         1 <0>         0.1013
     12 C8          3.6564   -0.3873   -5.0620 C.3       1 <0>        -0.1409
     13 C9          2.1722   -0.6647   -4.8120 C.3       1 <0>         0.0084
     14 H2          1.6187    0.2741   -4.8296 H         1 <0>         0.1496
     15 C10         2.0067   -1.3360   -3.4402 C.3       1 <0>         0.0946
     16 N2          1.6571   -1.5573   -5.8589 N.4       1 <0>        -0.6317
     17 C11         5.6389    0.8679   -4.2565 C.ar      1 <0>        -0.0641
     18 C12         6.5625   -0.1602   -4.2811 C.ar      1 <0>        -0.1155
     19 C13         7.8954    0.1137   -4.5245 C.ar      1 <0>        -0.0642
     20 C14         8.3045    1.4158   -4.7438 C.ar      1 <0>        -0.1694
     21 C15         7.3807    2.4439   -4.7202 C.ar      1 <0>        -0.0625
     22 C16         6.0472    2.1694   -4.4810 C.ar      1 <0>        -0.1054
     23 C17         9.7578    1.7146   -5.0082 C.3       1 <0>         0.5050
     24 F1         10.0037    1.6531   -6.3840 F         1 <0>        -0.1736
     25 F2         10.0638    2.9957   -4.5366 F         1 <0>        -0.1728
     26 F3         10.5549    0.7724   -4.3494 F         1 <0>        -0.1735
     27 H3          1.0039    1.9031    0.0027 H         1 <0>         0.0863
     28 H4         -0.5459    1.8868   -0.8726 H         1 <0>         0.0596
     29 H5         -0.5289    1.8773    0.9072 H         1 <0>         0.0777
     30 H6          0.2319   -0.1594    2.1383 H         1 <0>         0.0776
     31 H7          0.7568   -1.6008    1.2356 H         1 <0>         0.0617
     32 H8          1.7647   -0.1336    1.2338 H         1 <0>         0.0866
     33 H9         -1.9605   -0.1726   -0.8702 H         1 <0>         0.0664
     34 H10        -1.4185   -1.6235    0.0069 H         1 <0>         0.0681
     35 H11        -1.9435   -0.1821    0.9097 H         1 <0>         0.0875
     36 H12         4.3243    0.6303   -1.8391 H         1 <0>         0.1167
     37 H13         4.6842   -0.9618   -2.5552 H         1 <0>         0.0871
     38 H14         3.7806    0.0646   -6.0461 H         1 <0>         0.1008
     39 H15         4.2129   -1.3236   -5.0198 H         1 <0>         0.0976
     40 H16         2.4870   -2.3144   -3.4487 H         1 <0>         0.0956
     41 H17         0.9468   -1.4489   -3.2126 H         1 <0>         0.1184
     42 H18         2.1691   -2.4266   -5.8416 H         1 <0>         0.4357
     43 H19         0.6786   -1.7399   -5.6937 H         1 <0>         0.4403
     44 H20         6.2429   -1.1775   -4.1097 H         1 <0>         0.1341
     45 H21         8.6172   -0.6894   -4.5429 H         1 <0>         0.1419
     46 H22         7.7004    3.4612   -4.8912 H         1 <0>         0.1431
     47 H23         5.3248    2.9721   -4.4662 H         1 <0>         0.1383
     48 H24         1.7698   -1.1185   -6.7605 H         1 <0>         0.4414
@<TRIPOS>BOND
     1    1    2 1
     2    1   27 1
     3    1   28 1
     4    1   29 1
     5    2    3 1
     6    2    4 1
     7    2    5 1
     8    3   30 1
     9    3   31 1
    10    3   32 1
    11    4   33 1
    12    4   34 1
    13    4   35 1
    14    5    6 1
    15    6    7 2
    16    6    8 am
    17    8   15 1
    18    8    9 1
    19    9   10 1
    20    9   36 1
    21    9   37 1
    22   10   11 1
    23   10   12 1
    24   10   17 1
    25   12   13 1
    26   12   38 1
    27   12   39 1
    28   13   14 1
    29   13   15 1
    30   13   16 1
    31   15   40 1
    32   15   41 1
    33   16   42 1
    34   16   43 1
    35   16   48 1
    36   17   22 ar
    37   17   18 ar
    38   18   19 ar
    39   18   44 1
    40   19   20 ar
    41   19   45 1
    42   20   21 ar
    43   20   23 1
    44   21   22 ar
    45   21   46 1
    46   22   47 1
    47   23   24 1
    48   23   25 1
    49   23   26 1
@<TRIPOS>MOLECULE
ZINC53066015
   40    41     0     0     0
SMALL
USER_CHARGES

@<TRIPOS>ATOM
      1 C1         -1.4099    1.4126    0.6572 C.3       1 <0>        -0.1775
      2 C2         -0.7679    0.0955    0.2165 C.3       1 <0>        -0.1376
      3 C3          0.2744   -0.3349    1.2506 C.3       1 <0>         0.0554
      4 C4          0.9163   -1.6519    0.8100 C.3       1 <0>        -0.1367
      5 C5          2.0012   -2.0509    1.8123 C.3       1 <0>        -0.1775
      6 C6          1.3528    0.7442    1.3673 C.3       1 <0>         0.0635
      7 O1          1.9861    0.9238    0.0990 O.3       1 <0>        -0.5482
      8 N1         -0.3767   -0.5195    2.5544 N.4       1 <0>        -0.5037
      9 C7         -1.4262   -1.5407    2.4374 C.3       1 <0>         0.0333
     10 C8         -2.1766   -1.6414    3.7404 C.ar      1 <0>        -0.1271
     11 C9         -3.4077   -1.0268    3.8770 C.ar      1 <0>        -0.0682
     12 C10        -4.0990   -1.1176    5.0737 C.ar      1 <0>         0.0604
     13 C11        -3.5513   -1.8296    6.1385 C.ar      1 <0>         0.0804
     14 C12        -2.3178   -2.4430    5.9954 C.ar      1 <0>        -0.0707
     15 C13        -1.6351   -2.3531    4.7953 C.ar      1 <0>        -0.0733
     16 Br1         0.0454   -3.1979    4.6000 Br        1 <0>        -0.0086
     17 O2         -4.4159   -1.7709    7.1931 O.3       1 <0>        -0.2911
     18 C14        -5.3061   -0.6777    6.9002 C.3       1 <0>         0.2100
     19 O3         -5.3068   -0.6131    5.4618 O.3       1 <0>        -0.2936
     20 H1         -0.6416    2.1813    0.7403 H         1 <0>         0.0748
     21 H2         -2.1524    1.7192   -0.0795 H         1 <0>         0.0879
     22 H3         -1.8929    1.2756    1.6246 H         1 <0>         0.0484
     23 H4         -1.5362   -0.6732    0.1334 H         1 <0>         0.0899
     24 H5         -0.2849    0.2326   -0.7509 H         1 <0>         0.1225
     25 H6          0.1553   -2.4312    0.7688 H         1 <0>         0.0889
     26 H7          1.3618   -1.5267   -0.1769 H         1 <0>         0.1225
     27 H8          2.3838   -3.0397    1.5592 H         1 <0>         0.0866
     28 H9          2.8145   -1.3262    1.7752 H         1 <0>         0.0768
     29 H10         1.5781   -2.0713    2.8167 H         1 <0>         0.0438
     30 H11         0.8954    1.6825    1.6812 H         1 <0>         0.0713
     31 H12         2.0953    0.4376    2.1040 H         1 <0>         0.0708
     32 H13         2.6824    1.5948    0.0986 H         1 <0>         0.4049
     33 H14         0.3081   -0.8173    3.2331 H         1 <0>         0.4210
     34 H15        -2.1166   -1.2625    1.6412 H         1 <0>         0.1556
     35 H16        -0.9719   -2.5037    2.2044 H         1 <0>         0.1504
     36 H17        -3.8303   -0.4754    3.0502 H         1 <0>         0.1579
     37 H18        -1.8907   -2.9953    6.8193 H         1 <0>         0.1611
     38 H19        -6.3078   -0.8887    7.2745 H         1 <0>         0.1490
     39 H20        -4.9251    0.2509    7.3251 H         1 <0>         0.1010
     40 H21        -0.7877    0.3527    2.8517 H         1 <0>         0.4259
@<TRIPOS>BOND
     1    1    2 1
     2    1   20 1
     3    1   21 1
     4    1   22 1
     5    2    3 1
     6    2   23 1
     7    2   24 1
     8    3    4 1
     9    3    6 1
    10    3    8 1
    11    4    5 1
    12    4   25 1
    13    4   26 1
    14    5   27 1
    15    5   28 1
    16    5   29 1
    17    6    7 1
    18    6   30 1
    19    6   31 1
    20    7   32 1
    21    8    9 1
    22    8   33 1
    23    8   40 1
    24    9   10 1
    25    9   34 1
    26    9   35 1
    27   10   15 ar
    28   10   11 ar
    29   11   12 ar
    30   11   36 1
    31   12   19 1
    32   12   13 ar
    33   13   14 ar
    34   13   17 1
    35   14   15 ar
    36   14   37 1
    37   15   16 1
    38   17   18 1
    39   18   19 1
    40   18   38 1
    41   18   39 1
@<TRIPOS>MOLECULE
ZINC61406245
   34    36     0     0     0
SMALL
USER_CHARGES

@<TRIPOS>ATOM
      1 C1         -0.2169    1.6268    0.4124 C.3       1 <0>        -0.1894
      2 C2         -0.0540    0.1347    0.1159 C.3       1 <0>         0.0496
      3 H1          0.3995    0.0070   -0.8670 H         1 <0>         0.1536
      4 C3          0.8444   -0.5014    1.1786 C.3       1 <0>        -0.0158
      5 H2          0.4189   -0.3255    2.1666 H         1 <0>         0.1477
      6 C4          0.9428   -1.9846    0.9308 C.2       1 <0>        -0.2420
      7 C5          0.5819   -3.0104    1.7393 C.2       1 <0>        -0.0734
      8 C6          0.7658   -4.3082    1.2991 C.2       1 <0>        -0.1537
      9 C7          1.3022   -4.5154    0.0705 C.2       1 <0>        -0.0877
     10 S1          1.5578   -2.8456   -0.5071 S.3       1 <0>         0.1238
     11 Cl1         1.6448   -6.0150   -0.7342 Cl        1 <0>         0.0446
     12 S2          2.4990    0.2371    1.0924 S.3       1 <0>         0.0681
     13 C8          3.3388   -0.4347    2.4881 C.2       1 <0>         0.0934
     14 N1          2.8180   -1.2130    3.4099 N.2       1 <0>        -0.2343
     15 N2          3.7071   -1.5235    4.2865 N.2       1 <0>        -0.2728
     16 C9          4.8575   -0.9569    3.9733 C.2       1 <0>         0.2157
     17 N3          4.6511   -0.2482    2.8085 N.pl3     1 <0>        -0.3696
     18 C10         5.6763    0.4482    2.2314 C.2       1 <0>         0.0530
     19 C11         6.9026    0.4486    2.7912 C.2       1 <0>        -0.1154
     20 C12         7.1446   -0.2677    3.9783 C.2       1 <0>        -0.0774
     21 C13         6.1347   -0.9589    4.5696 C.2       1 <0>        -0.0780
     22 N4         -1.3713   -0.5151    0.1355 N.4       1 <0>        -0.6301
     23 H3          0.7655    2.0962    0.4647 H         1 <0>         0.1161
     24 H4         -0.8007    2.0934   -0.3810 H         1 <0>         0.0976
     25 H5         -0.7314    1.7539    1.3649 H         1 <0>         0.0925
     26 H6          0.1572   -2.8172    2.7133 H         1 <0>         0.1520
     27 H7          0.4870   -5.1439    1.9238 H         1 <0>         0.1544
     28 H8          5.5026    1.0016    1.3203 H         1 <0>         0.1720
     29 H9          7.7047    1.0019    2.3256 H         1 <0>         0.1656
     30 H10         8.1294   -0.2633    4.4217 H         1 <0>         0.1575
     31 H11         6.3115   -1.5126    5.4799 H         1 <0>         0.1656
     32 H12        -1.9637   -0.0956   -0.5653 H         1 <0>         0.4436
     33 H13        -1.2639   -1.4991   -0.0601 H         1 <0>         0.4364
     34 H14        -1.7911   -0.3969    1.0454 H         1 <0>         0.4370
@<TRIPOS>BOND
     1    1    2 1
     2    1   23 1
     3    1   24 1
     4    1   25 1
     5    2    3 1
     6    2    4 1
     7    2   22 1
     8    4    5 1
     9    4    6 1
    10    4   12 1
    11    6   10 1
    12    6    7 2
    13    7    8 1
    14    7   26 1
    15    8    9 2
    16    8   27 1
    17    9   10 1
    18    9   11 1
    19   12   13 1
    20   13   17 1
    21   13   14 2
    22   14   15 1
    23   15   16 2
    24   16   21 1
    25   16   17 1
    26   17   18 1
    27   18   19 2
    28   18   28 1
    29   19   20 1
    30   19   29 1
    31   20   21 2
    32   20   30 1
    33   21   31 1
    34   22   32 1
    35   22   33 1
    36   22   34 1
@<TRIPOS>MOLECULE
ZINC04308878
   50    52     0     0     0
SMALL
USER_CHARGES
3-(azepan-1-ylcarbonylmethyl)-10-methyl-1,3-diazaspiro[4.5]decane-2,4-dione
@<TRIPOS>ATOM
      1 C1         -4.0544    6.8939    4.6722 C.3       1 <0>        -0.1560
      2 C2         -4.5076    7.6738    3.4364 C.3       1 <0>        -0.0833
      3 H1         -5.3715    8.2875    3.6915 H         1 <0>         0.0934
      4 C3         -3.3669    8.5740    2.9550 C.3       1 <0>        -0.1233
      5 C4         -3.8139    9.3382    1.7071 C.3       1 <0>        -0.1181
      6 C5         -4.1688    8.3444    0.5991 C.3       1 <0>        -0.1272
      7 C6         -5.3128    7.4434    1.0709 C.3       1 <0>        -0.1130
      8 C7         -4.8884    6.6959    2.3303 C.3       1 <0>         0.1307
      9 C8         -3.7347    5.7658    2.0335 C.2       1 <0>         0.5429
     10 O1         -2.6312    6.0695    1.6338 O.2       1 <0>        -0.4549
     11 N1         -4.1925    4.5259    2.3047 N.am      1 <0>        -0.5638
     12 C9         -5.4602    4.5513    2.7338 C.2       1 <0>         0.7101
     13 O2         -6.0888    3.5585    3.0441 O.2       1 <0>        -0.5402
     14 N2         -5.9610    5.8005    2.7826 N.am      1 <0>        -0.7169
     15 C10        -3.3985    3.3039    2.1543 C.3       1 <0>         0.0988
     16 C11        -3.5817    2.7539    0.7632 C.2       1 <0>         0.5001
     17 O3         -4.3043    3.3263   -0.0249 O.2       1 <0>        -0.5272
     18 N3         -2.9426    1.6260    0.3950 N.am      1 <0>        -0.5995
     19 C12        -2.0887    0.9673    1.3580 C.3       1 <0>         0.1022
     20 C13        -0.6553    1.5374    1.2517 C.3       1 <0>        -0.1406
     21 C14        -0.0127    1.0858    0.0080 C.3       1 <0>        -0.1194
     22 C15        -0.7037    1.5679   -1.2639 C.3       1 <0>        -0.1183
     23 C16        -1.8293    0.6247   -1.6100 C.3       1 <0>        -0.1310
     24 C17        -3.1435    1.1138   -0.9747 C.3       1 <0>         0.1116
     25 H2         -3.1911    6.2791    4.4174 H         1 <0>         0.0517
     26 H3         -3.7820    7.5927    5.4631 H         1 <0>         0.0704
     27 H4         -4.8670    6.2542    5.0164 H         1 <0>         0.0607
     28 H5         -3.1065    9.2826    3.7413 H         1 <0>         0.0730
     29 H6         -2.4976    7.9621    2.7147 H         1 <0>         0.0811
     30 H7         -4.6883    9.9437    1.9457 H         1 <0>         0.0636
     31 H8         -3.0051    9.9859    1.3687 H         1 <0>         0.0691
     32 H9         -4.4793    8.8895   -0.2923 H         1 <0>         0.0727
     33 H10        -3.2969    7.7331    0.3662 H         1 <0>         0.0797
     34 H11        -5.5564    6.7257    0.2876 H         1 <0>         0.0766
     35 H12        -6.1892    8.0536    1.2890 H         1 <0>         0.0859
     36 H13        -6.8537    6.0580    3.0614 H         1 <0>         0.4408
     37 H14        -3.7283    2.5642    2.8838 H         1 <0>         0.1272
     38 H15        -2.3455    3.5322    2.3189 H         1 <0>         0.1252
     39 H16        -2.4752    1.1385    2.3627 H         1 <0>         0.0806
     40 H17        -2.0698   -0.1033    1.1539 H         1 <0>         0.0865
     41 H18        -0.0704    1.1944    2.1051 H         1 <0>         0.0792
     42 H19        -0.6978    2.6265    1.2611 H         1 <0>         0.0653
     43 H20         0.0021   -0.0041    0.0020 H         1 <0>         0.0619
     44 H21         1.0165    1.4448    0.0001 H         1 <0>         0.0609
     45 H22        -1.1044    2.5688   -1.1031 H         1 <0>         0.0643
     46 H23         0.0160    1.5915   -2.0822 H         1 <0>         0.0650
     47 H24        -1.9452    0.5821   -2.6929 H         1 <0>         0.0776
     48 H25        -1.5948   -0.3712   -1.2340 H         1 <0>         0.0682
     49 H26        -3.5606    1.9092   -1.5923 H         1 <0>         0.0901
     50 H27        -3.8504    0.2848   -0.9410 H         1 <0>         0.0658
@<TRIPOS>BOND
     1    1    2 1
     2    1   25 1
     3    1   26 1
     4    1   27 1
     5    2    3 1
     6    2    8 1
     7    2    4 1
     8    4    5 1
     9    4   28 1
    10    4   29 1
    11    5    6 1
    12    5   30 1
    13    5   31 1
    14    6    7 1
    15    6   32 1
    16    6   33 1
    17    7    8 1
    18    7   34 1
    19    7   35 1
    20    8   14 1
    21    8    9 1
    22    9   10 2
    23    9   11 am
    24   11   12 am
    25   11   15 1
    26   12   13 2
    27   12   14 am
    28   14   36 1
    29   15   16 1
    30   15   37 1
    31   15   38 1
    32   16   17 2
    33   16   18 am
    34   18   24 1
    35   18   19 1
    36   19   20 1
    37   19   39 1
    38   19   40 1
    39   20   21 1
    40   20   41 1
    41   20   42 1
    42   21   22 1
    43   21   43 1
    44   21   44 1
    45   22   23 1
    46   22   45 1
    47   22   46 1
    48   23   24 1
    49   23   47 1
    50   23   48 1
    51   24   49 1
    52   24   50 1
@<TRIPOS>MOLECULE
ZINC19606421
   37    39     0     0     0
SMALL
USER_CHARGES
(2R,7aS)-1-hydroxy-7a-methyl-2-(4-nitrophenyl)-4,5,6,7-tetrahydro-2H-benzimidazole
@<TRIPOS>ATOM
      1 C1          1.9098    2.0088   -1.4388 C.3       1 <0>        -0.1455
      2 C2          1.4248    1.8070   -0.0018 C.3       1 <0>         0.0673
      3 C3          1.7163    3.0363    0.8390 C.3       1 <0>        -0.0924
      4 C4          3.1616    3.0980    1.2961 C.3       1 <0>        -0.1234
      5 C5          3.5980    1.8584    2.0632 C.3       1 <0>        -0.1222
      6 C6          3.5027    0.6208    1.1579 C.3       1 <0>        -0.0651
      7 C7          2.0917    0.5937    0.6106 C.2       1 <0>         0.1836
      8 N1          1.2829   -0.3878    0.6111 N.2       1 <0>        -0.4813
      9 C8          0.0021   -0.0041    0.0020 C.3       1 <0>         0.1855
     10 H1         -0.0785   -0.4041   -1.0195 H         1 <0>         0.1111
     11 N2         -0.0181    1.4804    0.0102 N.3       1 <0>        -0.3060
     12 O1         -0.6837    2.0023   -1.1835 O.3       1 <0>        -0.4401
     13 C9         -1.1456   -0.5446    0.8156 C.ar      1 <0>        -0.0192
     14 C10        -2.3209    0.1760    0.9166 C.ar      1 <0>        -0.0996
     15 C11        -3.3752   -0.3219    1.6592 C.ar      1 <0>        -0.0546
     16 C12        -3.2507   -1.5358    2.3087 C.ar      1 <0>        -0.0426
     17 C13        -2.0736   -2.2541    2.2116 C.ar      1 <0>        -0.0552
     18 C14        -1.0209   -1.7583    1.4654 C.ar      1 <0>        -0.0903
     19 N3         -4.3779   -2.0667    3.1077 N.pl3     1 <0>         0.0266
     20 O2         -4.2683   -3.1365    3.6797 O.2       1 <0>        -0.1575
     21 O3         -5.4150   -1.4338    3.1933 O.3       1 <0>        -0.1574
     22 H2          1.4179    2.8926   -1.8711 H         1 <0>         0.0806
     23 H3          1.6606    1.1206   -2.0380 H         1 <0>         0.0546
     24 H4          2.9996    2.1583   -1.4404 H         1 <0>         0.0714
     25 H5          1.5086    3.9414    0.2494 H         1 <0>         0.0769
     26 H6          1.0779    3.0277    1.7347 H         1 <0>         0.0739
     27 H7          3.8194    3.1966    0.4199 H         1 <0>         0.0670
     28 H8          3.3001    3.9656    1.9580 H         1 <0>         0.0767
     29 H9          4.6381    1.9823    2.3990 H         1 <0>         0.0825
     30 H10         2.9447    1.7191    2.9371 H         1 <0>         0.0685
     31 H11         4.2378    0.7045    0.3439 H         1 <0>         0.0994
     32 H12         3.7117   -0.2830    1.7491 H         1 <0>         0.0960
     33 H13        -1.7628    1.8428   -1.3256 H         1 <0>         0.4154
     34 H14        -2.4168    1.1263    0.4124 H         1 <0>         0.1472
     35 H15        -4.2950    0.2391    1.7347 H         1 <0>         0.1564
     36 H16        -1.9763   -3.2025    2.7191 H         1 <0>         0.1564
     37 H17        -0.1011   -2.3193    1.3899 H         1 <0>         0.1553
@<TRIPOS>BOND
     1    1    2 1
     2    1   22 1
     3    1   23 1
     4    1   24 1
     5    2    7 1
     6    2   11 1
     7    2    3 1
     8    3    4 1
     9    3   25 1
    10    3   26 1
    11    4    5 1
    12    4   27 1
    13    4   28 1
    14    5    6 1
    15    5   29 1
    16    5   30 1
    17    6    7 1
    18    6   31 1
    19    6   32 1
    20    7    8 2
    21    8    9 1
    22    9   10 1
    23    9   11 1
    24    9   13 1
    25   11   12 1
    26   12   33 1
    27   13   18 ar
    28   13   14 ar
    29   14   15 ar
    30   14   34 1
    31   15   16 ar
    32   15   35 1
    33   16   17 ar
    34   16   19 1
    35   17   18 ar
    36   17   36 1
    37   18   37 1
    38   19   20 2
    39   19   21 1
@<TRIPOS>MOLECULE
ZINC00082916
   46    48     0     0     0
SMALL
USER_CHARGES

@<TRIPOS>ATOM
      1 C1          0.0363    1.5052    0.0205 C.3       1 <0>        -0.0959
      2 C2          0.0518   -0.0017    0.0122 C.2       1 <0>        -0.1215
      3 C3          0.0674   -0.6666   -1.1586 C.2       1 <0>        -0.1310
      4 S1          0.0810   -2.3766   -0.6463 S.3       1 <0>         0.0816
      5 C4          0.0651   -2.1161    1.1070 C.ar      1 <0>        -0.3000
      6 C5          0.0556   -0.7095    1.2271 C.ar      1 <0>         0.2046
      7 N1          0.0467   -0.2305    2.4957 N.ar      1 <0>        -0.5353
      8 C6          0.0517   -1.0338    3.5276 C.ar      1 <0>         0.3442
      9 N2          0.0659   -2.3513    3.4280 N.ar      1 <0>        -0.5681
     10 C7          0.0646   -2.9297    2.2263 C.ar      1 <0>         0.4988
     11 N3          0.0796   -4.3094    2.1018 N.pl3     1 <0>        -0.5910
     12 C8         -0.0340   -4.9425    0.7804 C.3       1 <0>         0.1124
     13 C9          1.1649   -5.8779    0.5804 C.3       1 <0>         0.1176
     14 N4          1.2952   -6.7346    1.7674 N.am      1 <0>        -0.6320
     15 C10         1.4088   -6.1015    3.0888 C.3       1 <0>         0.0970
     16 C11         0.2155   -5.1661    3.2882 C.3       1 <0>         0.1078
     17 C12         1.3099   -8.0768    1.6463 C.2       1 <0>         0.7122
     18 O1          1.3139   -8.5877    0.5429 O.2       1 <0>        -0.5787
     19 N5          1.3200   -8.8528    2.7482 N.am      1 <0>        -0.7387
     20 C13         1.4497  -10.3064    2.6193 C.3       1 <0>         0.1848
     21 C14         2.7687  -10.6406    1.9197 C.3       1 <0>        -0.1635
     22 C15         1.4337  -10.9451    4.0096 C.3       1 <0>        -0.1561
     23 C16         0.2823  -10.8514    1.7941 C.3       1 <0>        -0.1655
     24 H1          1.0602    1.8790    0.0254 H         1 <0>         0.0714
     25 H2         -0.4788    1.8682   -0.8689 H         1 <0>         0.0679
     26 H3         -0.4836    1.8583    0.9110 H         1 <0>         0.0756
     27 H4          0.0705   -0.2644   -2.1610 H         1 <0>         0.1979
     28 H5          0.0441   -0.5965    4.5151 H         1 <0>         0.1993
     29 H6         -0.9589   -5.5170    0.7282 H         1 <0>         0.0857
     30 H7         -0.0327   -4.1755    0.0059 H         1 <0>         0.0892
     31 H8          1.0025   -6.4972   -0.3017 H         1 <0>         0.1132
     32 H9          2.0724   -5.2875    0.4539 H         1 <0>         0.0743
     33 H10         1.4075   -6.8686    3.8632 H         1 <0>         0.0919
     34 H11         2.3337   -5.5271    3.1409 H         1 <0>         0.0774
     35 H12         0.3816   -4.5466    4.1696 H         1 <0>         0.1143
     36 H13        -0.6911   -5.7568    3.4187 H         1 <0>         0.0742
     37 H14         1.2414   -8.4489    3.6266 H         1 <0>         0.3935
     38 H15         3.6004  -10.2523    2.5076 H         1 <0>         0.0527
     39 H16         2.8653  -11.7221    1.8239 H         1 <0>         0.0644
     40 H17         2.7802  -10.1856    0.9293 H         1 <0>         0.0764
     41 H18         0.4940  -10.7069    4.5080 H         1 <0>         0.0620
     42 H19         1.5302  -12.0265    3.9137 H         1 <0>         0.0763
     43 H20         2.2654  -10.5567    4.5974 H         1 <0>         0.0617
     44 H21         0.2938  -10.3964    0.8037 H         1 <0>         0.0831
     45 H22         0.3789  -11.9329    1.6983 H         1 <0>         0.0620
     46 H23        -0.6573  -10.6133    2.2925 H         1 <0>         0.0518
@<TRIPOS>BOND
     1    1    2 1
     2    1   24 1
     3    1   25 1
     4    1   26 1
     5    2    6 1
     6    2    3 2
     7    3    4 1
     8    3   27 1
     9    4    5 1
    10    5   10 ar
    11    5    6 ar
    12    6    7 ar
    13    7    8 ar
    14    8    9 ar
    15    8   28 1
    16    9   10 ar
    17   10   11 1
    18   11   16 1
    19   11   12 1
    20   12   13 1
    21   12   29 1
    22   12   30 1
    23   13   14 1
    24   13   31 1
    25   13   32 1
    26   14   15 1
    27   14   17 am
    28   15   16 1
    29   15   33 1
    30   15   34 1
    31   16   35 1
    32   16   36 1
    33   17   18 2
    34   17   19 am
    35   19   20 1
    36   19   37 1
    37   20   21 1
    38   20   22 1
    39   20   23 1
    40   21   38 1
    41   21   39 1
    42   21   40 1
    43   22   41 1
    44   22   42 1
    45   22   43 1
    46   23   44 1
    47   23   45 1
    48   23   46 1
@<TRIPOS>MOLECULE
ZINC40571529
   24    25     0     0     0
SMALL
USER_CHARGES

@<TRIPOS>ATOM
      1 C1          1.0738   -0.4582   -0.7606 C.ar      1 <0>        -0.0902
      2 C2          2.2594    0.2511   -0.7746 C.ar      1 <0>        -0.1013
      3 C3          2.3801    1.4147   -0.0353 C.ar      1 <0>         0.0648
      4 C4          1.3111    1.8716    0.7213 C.ar      1 <0>         0.0941
      5 C5          0.1232    1.1640    0.7379 C.ar      1 <0>        -0.1461
      6 C6          0.0017   -0.0036   -0.0043 C.ar      1 <0>         0.1600
      7 N1         -1.1994   -0.7208    0.0101 N.pl3     1 <0>        -0.6322
      8 C7         -1.1831   -2.1026   -0.1021 C.ar      1 <0>         0.4968
      9 C8         -2.3761   -2.8196   -0.2056 C.ar      1 <0>        -0.1951
     10 C9         -2.3066   -4.1963   -0.3154 C.ar      1 <0>         0.3056
     11 N2         -1.1178   -4.7857   -0.3187 N.ar      1 <0>        -0.5257
     12 C10        -0.0101   -4.0791   -0.2193 C.ar      1 <0>         0.3965
     13 N3         -0.0299   -2.7655   -0.1184 N.ar      1 <0>        -0.5433
     14 Cl1        -3.7567   -5.1417   -0.4466 Cl        1 <0>         0.0368
     15 N4         -3.6826   -2.1239   -0.1975 N.pl3     1 <0>         0.0264
     16 O1         -4.1771   -1.7543   -1.2370 O.2       1 <0>        -0.1129
     17 O2         -4.2552   -1.9252    0.8485 O.3       1 <0>        -0.1167
     18 F1          1.4306    3.0078    1.4425 F         1 <0>        -0.1194
     19 F2          3.5406    2.1062   -0.0502 F         1 <0>        -0.1224
     20 H1          0.9794   -1.3638   -1.3415 H         1 <0>         0.1533
     21 H2          3.0931   -0.1031   -1.3627 H         1 <0>         0.1567
     22 H3         -0.7094    1.5191    1.3272 H         1 <0>         0.1530
     23 H4         -2.0436   -0.2514    0.0986 H         1 <0>         0.4287
     24 H5          0.9410   -4.5908   -0.2248 H         1 <0>         0.2327
@<TRIPOS>BOND
     1    1    6 ar
     2    1    2 ar
     3    1   20 1
     4    2    3 ar
     5    2   21 1
     6    3    4 ar
     7    3   19 1
     8    4    5 ar
     9    4   18 1
    10    5    6 ar
    11    5   22 1
    12    6    7 1
    13    7    8 1
    14    7   23 1
    15    8   13 ar
    16    8    9 ar
    17    9   10 ar
    18    9   15 1
    19   10   11 ar
    20   10   14 1
    21   11   12 ar
    22   12   13 ar
    23   12   24 1
    24   15   16 2
    25   15   17 1
@<TRIPOS>MOLECULE
ZINC61122098
   24    25     0     0     0
SMALL
USER_CHARGES

@<TRIPOS>ATOM
      1 C1          0.0682    1.2374    0.6322 C.ar      1 <0>        -0.1448
      2 C2          1.2580    1.9438    0.6386 C.ar      1 <0>         0.1541
      3 C3          2.3836    1.4128    0.0322 C.ar      1 <0>        -0.1743
      4 C4          2.3222    0.1732   -0.5824 C.ar      1 <0>         0.1305
      5 C5          1.1340   -0.5376   -0.5915 C.ar      1 <0>         0.0315
      6 C6          0.0029   -0.0054    0.0171 C.ar      1 <0>         0.1738
      7 N1         -1.1994   -0.7213    0.0096 N.pl3     1 <0>        -0.6279
      8 C7         -2.4066   -0.0501    0.1294 C.ar      1 <0>         0.4963
      9 C8         -3.6029   -0.7590    0.2485 C.ar      1 <0>        -0.1905
     10 C9         -4.7805   -0.0435    0.3653 C.ar      1 <0>         0.3063
     11 N2         -4.7348    1.2825    0.3603 N.ar      1 <0>        -0.5216
     12 C10        -3.5880    1.9214    0.2462 C.ar      1 <0>         0.3973
     13 N3         -2.4423    1.2796    0.1381 N.ar      1 <0>        -0.5442
     14 Cl1        -6.2997   -0.8700    0.5159 Cl        1 <0>         0.0406
     15 N4         -3.6110   -2.2392    0.2493 N.pl3     1 <0>         0.0244
     16 O1         -3.5106   -2.8437    1.2915 O.2       1 <0>        -0.1105
     17 O2         -3.7181   -2.8437   -0.7923 O.3       1 <0>        -0.1133
     18 F1          1.0738   -1.7466   -1.1914 F         1 <0>        -0.1170
     19 F2          3.4220   -0.3425   -1.1738 F         1 <0>        -0.1091
     20 F3          1.3212    3.1535    1.2369 F         1 <0>        -0.1151
     21 H1         -0.8081    1.6507    1.1094 H         1 <0>         0.1777
     22 H2          3.3110    1.9663    0.0382 H         1 <0>         0.1667
     23 H3         -1.1882   -1.6871   -0.0794 H         1 <0>         0.4337
     24 H4         -3.5867    3.0014    0.2457 H         1 <0>         0.2351
@<TRIPOS>BOND
     1    1    6 ar
     2    1    2 ar
     3    1   21 1
     4    2    3 ar
     5    2   20 1
     6    3    4 ar
     7    3   22 1
     8    4    5 ar
     9    4   19 1
    10    5    6 ar
    11    5   18 1
    12    6    7 1
    13    7    8 1
    14    7   23 1
    15    8   13 ar
    16    8    9 ar
    17    9   10 ar
    18    9   15 1
    19   10   11 ar
    20   10   14 1
    21   11   12 ar
    22   12   13 ar
    23   12   24 1
    24   15   16 2
    25   15   17 1
@<TRIPOS>MOLECULE
ZINC66811699
   39    41     0     0     0
SMALL
USER_CHARGES

@<TRIPOS>ATOM
      1 C1         -0.0189    1.4087   -0.0479 C.3       1 <0>        -0.1127
      2 C2          0.0220   -0.0977   -0.0351 C.ar      1 <0>        -0.1096
      3 C3          0.0450   -0.7991   -1.2267 C.ar      1 <0>        -0.0778
      4 C4          0.0844   -2.1781   -1.2137 C.ar      1 <0>        -0.1084
      5 C5          0.0998   -2.8668   -0.0048 C.ar      1 <0>         0.1420
      6 C6          0.0732   -2.1624    1.1859 C.ar      1 <0>        -0.1770
      7 C7          0.0421   -0.7778    1.1667 C.ar      1 <0>        -0.0771
      8 C8          0.0776   -2.8697    2.5174 C.3       1 <0>         0.1892
      9 H1         -0.9311   -2.8711    2.9307 H         1 <0>         0.0994
     10 C9          0.5545   -4.3125    2.3334 C.3       1 <0>        -0.1774
     11 C10        -0.2145   -4.9281    1.1574 C.3       1 <0>         0.0656
     12 O1          0.1440   -4.2243   -0.0327 O.3       1 <0>        -0.3084
     13 N1          0.9801   -2.1724    3.4368 N.pl3     1 <0>        -0.6951
     14 C11         0.7886   -2.2751    4.8114 C.ar      1 <0>         0.3162
     15 C12        -0.3175   -2.9472    5.3317 C.ar      1 <0>        -0.2594
     16 C13        -0.4705   -3.0269    6.6995 C.ar      1 <0>         0.1836
     17 N2          0.4126   -2.4775    7.5125 N.ar      1 <0>        -0.5113
     18 C14         1.4718   -1.8335    7.0595 C.ar      1 <0>         0.2230
     19 C15         1.7007   -1.7139    5.7047 C.ar      1 <0>        -0.1874
     20 N3          2.8946   -0.9953    5.2059 N.pl3     1 <0>         0.0597
     21 O2          3.7318   -0.6012    5.9839 O.2       1 <0>        -0.1430
     22 O3          3.0326   -0.8025    4.0204 O.3       1 <0>        -0.1988
     23 C16         0.1103   -2.9410   -2.5131 C.3       1 <0>        -0.1069
     24 H2          0.9985    1.7998   -0.0525 H         1 <0>         0.0723
     25 H3         -0.5435    1.7504   -0.9402 H         1 <0>         0.0681
     26 H4         -0.5413    1.7656    0.8397 H         1 <0>         0.0648
     27 H5          0.0318   -0.2677   -2.1668 H         1 <0>         0.1324
     28 H6          0.0292   -0.2276    2.0959 H         1 <0>         0.1228
     29 H7          1.6231   -4.3216    2.1185 H         1 <0>         0.0872
     30 H8          0.3569   -4.8833    3.2407 H         1 <0>         0.0906
     31 H9          0.0511   -5.9804    1.0557 H         1 <0>         0.1158
     32 H10        -1.2866   -4.8347    1.3307 H         1 <0>         0.0693
     33 H11         1.7111   -1.6390    3.0875 H         1 <0>         0.4258
     34 H12        -1.0441   -3.3983    4.6722 H         1 <0>         0.1540
     35 H13        -1.3239   -3.5453    7.1112 H         1 <0>         0.1757
     36 H14         2.1702   -1.3978    7.7587 H         1 <0>         0.1836
     37 H15         1.1438   -3.0956   -2.8231 H         1 <0>         0.0707
     38 H16        -0.3766   -3.9067   -2.3772 H         1 <0>         0.0716
     39 H17        -0.4176   -2.3725   -3.2788 H         1 <0>         0.0669
@<TRIPOS>BOND
     1    1    2 1
     2    1   24 1
     3    1   25 1
     4    1   26 1
     5    2    7 ar
     6    2    3 ar
     7    3    4 ar
     8    3   27 1
     9    4    5 ar
    10    4   23 1
    11    5   12 1
    12    5    6 ar
    13    6    7 ar
    14    6    8 1
    15    7   28 1
    16    8    9 1
    17    8   10 1
    18    8   13 1
    19   10   11 1
    20   10   29 1
    21   10   30 1
    22   11   12 1
    23   11   31 1
    24   11   32 1
    25   13   14 1
    26   13   33 1
    27   14   19 ar
    28   14   15 ar
    29   15   16 ar
    30   15   34 1
    31   16   17 ar
    32   16   35 1
    33   17   18 ar
    34   18   19 ar
    35   18   36 1
    36   19   20 1
    37   20   21 2
    38   20   22 1
    39   23   37 1
    40   23   38 1
    41   23   39 1
@<TRIPOS>MOLECULE
ZINC19792260
   42    45     0     0     0
SMALL
USER_CHARGES
(3R)-N-(1,3-benzodioxol-4-ylmethyl)-8-methoxy-chroman-3-amine
@<TRIPOS>ATOM
      1 C1         -3.4420   -0.7445   -1.0326 C.3       1 <0>         0.0226
      2 O1         -2.2834    0.0147   -0.6815 O.3       1 <0>        -0.3059
      3 C2         -1.1643   -0.6839   -0.3509 C.ar      1 <0>         0.1028
      4 C3         -1.1845   -2.0678   -0.3654 C.ar      1 <0>        -0.1813
      5 C4         -0.0466   -2.7770   -0.0289 C.ar      1 <0>        -0.1098
      6 C5          1.1089   -2.1051    0.3184 C.ar      1 <0>        -0.1209
      7 C6          1.1374   -0.7195    0.3335 C.ar      1 <0>        -0.1221
      8 C7          0.0021   -0.0041    0.0020 C.ar      1 <0>         0.1027
      9 O2         -0.0164    1.3551    0.0095 O.3       1 <0>        -0.3041
     10 C8          1.2370    2.0399    0.0012 C.3       1 <0>         0.0734
     11 C9          2.1293    1.4289    1.0894 C.3       1 <0>         0.0450
     12 H1          1.6557    1.4947    2.0800 H         1 <0>         0.0608
     13 C10         2.4215   -0.0250    0.7103 C.3       1 <0>        -0.0765
     14 N1          3.3885    2.1802    1.1780 N.3       1 <0>        -0.6590
     15 C11         3.2489    3.3381    2.0713 C.3       1 <0>         0.0916
     16 C12         4.5575    4.0825    2.1369 C.ar      1 <0>        -0.0697
     17 C13         5.4031    3.9000    3.2157 C.ar      1 <0>        -0.1047
     18 C14         6.6070    4.5761    3.2760 C.ar      1 <0>        -0.1101
     19 C15         6.9651    5.4482    2.2644 C.ar      1 <0>        -0.0983
     20 C16         6.1205    5.6404    1.1837 C.ar      1 <0>         0.0275
     21 C17         4.9101    4.9536    1.1194 C.ar      1 <0>         0.0601
     22 O3          4.2663    5.3112   -0.0298 O.3       1 <0>        -0.2997
     23 C18         4.9032    6.5270   -0.4650 C.3       1 <0>         0.2067
     24 O4          6.2344    6.4280    0.0746 O.3       1 <0>        -0.3050
     25 H2         -4.2686   -0.0607   -1.2758 H         1 <0>         0.1026
     26 H3         -3.7320   -1.3837   -0.1857 H         1 <0>         0.0557
     27 H4         -3.2172   -1.3735   -1.9066 H         1 <0>         0.0559
     28 H5         -2.0878   -2.5927   -0.6393 H         1 <0>         0.1348
     29 H6         -0.0612   -3.8569   -0.0379 H         1 <0>         0.1282
     30 H7          1.9959   -2.6629    0.5803 H         1 <0>         0.1271
     31 H8          1.7118    1.9236   -0.9842 H         1 <0>         0.0727
     32 H9          1.0725    3.1082    0.2051 H         1 <0>         0.1071
     33 H10         2.8793   -0.5405    1.5674 H         1 <0>         0.0859
     34 H11         3.1145   -0.0471   -0.1436 H         1 <0>         0.0941
     35 H12         4.1796    1.5248    1.5711 H         1 <0>         0.3476
     36 H13         2.4656    4.0068    1.6850 H         1 <0>         0.0842
     37 H14         2.9725    2.9930    3.0785 H         1 <0>         0.0490
     38 H15         5.1246    3.2235    4.0102 H         1 <0>         0.1359
     39 H16         7.2672    4.4269    4.1176 H         1 <0>         0.1391
     40 H17         7.9040    5.9794    2.3168 H         1 <0>         0.1354
     41 H18         4.9013    6.5687   -1.5642 H         1 <0>         0.1336
     42 H19         4.3546    7.3921   -0.0643 H         1 <0>         0.0847
@<TRIPOS>BOND
     1    1    2 1
     2    1   25 1
     3    1   26 1
     4    1   27 1
     5    2    3 1
     6    3    8 ar
     7    3    4 ar
     8    4    5 ar
     9    4   28 1
    10    5    6 ar
    11    5   29 1
    12    6    7 ar
    13    6   30 1
    14    7   13 1
    15    7    8 ar
    16    8    9 1
    17    9   10 1
    18   10   11 1
    19   10   31 1
    20   10   32 1
    21   11   12 1
    22   11   13 1
    23   11   14 1
    24   13   33 1
    25   13   34 1
    26   14   15 1
    27   14   35 1
    28   15   16 1
    29   15   36 1
    30   15   37 1
    31   16   21 ar
    32   16   17 ar
    33   17   18 ar
    34   17   38 1
    35   18   19 ar
    36   18   39 1
    37   19   20 ar
    38   19   40 1
    39   20   24 1
    40   20   21 ar
    41   21   22 1
    42   22   23 1
    43   23   24 1
    44   23   41 1
    45   23   42 1
@<TRIPOS>MOLECULE
ZINC39262804
   49    51     0     0     0
SMALL
USER_CHARGES

@<TRIPOS>ATOM
      1 C1          0.1348    1.8720   -0.5792 C.3       1 <0>        -0.1486
      2 C2         -0.0263    0.3575   -0.4164 C.3       1 <0>        -0.0741
      3 H1         -1.1065    0.1323   -0.5234 H         1 <0>         0.0724
      4 C3          0.7200   -0.3894   -1.5208 C.3       1 <0>        -0.0906
      5 H2          0.5730    0.0404   -2.5218 H         1 <0>         0.0831
      6 C4          0.3861   -1.8998   -1.4323 C.3       1 <0>        -0.1461
      7 C5          1.5143   -1.9282   -0.3795 C.3       1 <0>        -0.0976
      8 H3          2.0892   -2.8643   -0.3575 H         1 <0>         0.0803
      9 C6          2.1576   -0.8001   -1.1983 C.3       1 <0>        -0.0733
     10 C7          3.0013    0.1892   -0.4008 C.3       1 <0>        -0.1465
     11 C8          2.9322   -1.3159   -2.4274 C.3       1 <0>        -0.1313
     12 C9          1.0079   -1.4848    0.9923 C.3       1 <0>        -0.1106
     13 C10         0.4089   -0.0832    0.9753 C.3       1 <0>         0.1586
     14 H4          1.1313    0.6348    1.3837 H         1 <0>         0.0945
     15 N1         -0.7653   -0.0594    1.8695 N.am      1 <0>        -0.7327
     16 C11        -0.5974    0.0912    3.1983 C.2       1 <0>         0.5712
     17 O1          0.5215    0.2074    3.6605 O.2       1 <0>        -0.5169
     18 C12        -1.7690    0.1150    4.0906 C.ar      1 <0>        -0.2537
     19 C13        -3.0640   -0.0239    3.5702 C.ar      1 <0>         0.0231
     20 C14        -4.1296    0.0043    4.4456 C.ar      1 <0>        -0.2342
     21 C15        -3.8918    0.1682    5.8072 C.ar      1 <0>         0.3888
     22 N2         -2.6603    0.2977    6.2744 N.ar      1 <0>        -0.6008
     23 C16        -1.6073    0.2712    5.4754 C.ar      1 <0>         0.4172
     24 O2         -0.3643    0.4016    5.9967 O.3       1 <0>        -0.2659
     25 C17        -0.2682    0.5572    7.4140 C.3       1 <0>         0.0332
     26 O3         -4.9377    0.1960    6.6680 O.3       1 <0>        -0.2983
     27 C18        -4.6331    0.3667    8.0536 C.3       1 <0>         0.0367
     28 H5          1.1872    2.1381   -0.4806 H         1 <0>         0.0606
     29 H6         -0.2252    2.1719   -1.5634 H         1 <0>         0.0594
     30 H7         -0.4430    2.3836    0.1905 H         1 <0>         0.0560
     31 H8         -0.6043   -2.0959   -1.0149 H         1 <0>         0.0646
     32 H9          0.5820   -2.4627   -2.3362 H         1 <0>         0.0860
     33 H10         2.6003    0.2774    0.6089 H         1 <0>         0.0658
     34 H11         4.0305   -0.1668   -0.3531 H         1 <0>         0.0554
     35 H12         2.9762    1.1638   -0.8882 H         1 <0>         0.0568
     36 H13         2.9756   -0.5329   -3.1844 H         1 <0>         0.0582
     37 H14         3.9444   -1.5903   -2.1301 H         1 <0>         0.0587
     38 H15         2.4244   -2.1892   -2.8367 H         1 <0>         0.0574
     39 H16         0.2447   -2.1974    1.3407 H         1 <0>         0.0678
     40 H17         1.8325   -1.5217    1.7171 H         1 <0>         0.0724
     41 H18        -1.6577   -0.1521    1.5008 H         1 <0>         0.3933
     42 H19        -3.2230   -0.1495    2.5094 H         1 <0>         0.1507
     43 H20        -5.1397   -0.0996    4.0776 H         1 <0>         0.1521
     44 H21         0.7796    0.6508    7.6990 H         1 <0>         0.1018
     45 H22        -0.8091    1.4532    7.7186 H         1 <0>         0.0599
     46 H23        -0.7020   -0.3137    7.9054 H         1 <0>         0.0597
     47 H24        -3.9987   -0.4534    8.3900 H         1 <0>         0.0620
     48 H25        -4.1106    1.3125    8.1969 H         1 <0>         0.0621
     49 H26        -5.5576    0.3713    8.6310 H         1 <0>         0.1018
@<TRIPOS>BOND
     1    1    2 1
     2    1   28 1
     3    1   29 1
     4    1   30 1
     5    2    3 1
     6    2   13 1
     7    2    4 1
     8    4    5 1
     9    4    9 1
    10    4    6 1
    11    6    7 1
    12    6   31 1
    13    6   32 1
    14    7    8 1
    15    7    9 1
    16    7   12 1
    17    9   10 1
    18    9   11 1
    19   10   33 1
    20   10   34 1
    21   10   35 1
    22   11   36 1
    23   11   37 1
    24   11   38 1
    25   12   13 1
    26   12   39 1
    27   12   40 1
    28   13   14 1
    29   13   15 1
    30   15   16 am
    31   15   41 1
    32   16   17 2
    33   16   18 1
    34   18   23 ar
    35   18   19 ar
    36   19   20 ar
    37   19   42 1
    38   20   21 ar
    39   20   43 1
    40   21   22 ar
    41   21   26 1
    42   22   23 ar
    43   23   24 1
    44   24   25 1
    45   25   44 1
    46   25   45 1
    47   25   46 1
    48   26   27 1
    49   27   47 1
    50   27   48 1
    51   27   49 1
@<TRIPOS>MOLECULE
ZINC53583589
   38    41     0     0     0
SMALL
USER_CHARGES

@<TRIPOS>ATOM
      1 C1         -0.0178    1.4608    0.0101 C.3       1 <0>         0.0976
      2 N1          0.0021   -0.0041    0.0020 N.pl3     1 <0>        -0.3724
      3 C2          0.0078   -0.7920   -1.0936 C.2       1 <0>         0.0817
      4 C3          0.0272   -2.0789   -0.6760 C.2       1 <0>        -0.2691
      5 C4          0.0335   -2.0775    0.7227 C.2       1 <0>         0.0661
      6 N2          0.0246   -0.8342    1.1302 N.2       1 <0>        -0.2934
      7 C5          0.0390   -3.2983   -1.5614 C.3       1 <0>         0.2082
      8 N3          1.4239   -3.6749   -1.8554 N.pl3     1 <0>        -0.6904
      9 C6          1.6864   -4.7684   -2.6531 C.ar      1 <0>         0.4825
     10 C7          3.0205   -5.1521   -2.9441 C.ar      1 <0>        -0.2004
     11 C8          4.1198   -4.4485   -2.4420 C.ar      1 <0>        -0.0673
     12 C9          5.3824   -4.8617   -2.7533 C.ar      1 <0>        -0.1354
     13 C10         5.5912   -5.9739   -3.5637 C.ar      1 <0>        -0.0727
     14 C11         4.5413   -6.6812   -4.0696 C.ar      1 <0>        -0.1099
     15 C12         3.2303   -6.2845   -3.7692 C.ar      1 <0>         0.1951
     16 N4          2.1652   -6.9466   -4.2408 N.ar      1 <0>        -0.5399
     17 C13         0.9409   -6.5468   -3.9390 C.ar      1 <0>         0.4545
     18 N5          0.6998   -5.4892   -3.1618 N.ar      1 <0>        -0.5881
     19 C14        -0.2039   -7.3034   -4.4792 C.2       1 <0>        -0.1171
     20 C15        -0.2033   -8.4157   -5.2813 C.2       1 <0>        -0.0991
     21 C16        -1.4089   -8.9550   -5.6645 C.2       1 <0>        -0.1674
     22 C17        -2.5610   -8.3722   -5.2386 C.2       1 <0>        -0.1704
     23 S1         -1.9511   -7.0145   -4.2527 S.3       1 <0>         0.1132
     24 H1          1.0048    1.8381    0.0023 H         1 <0>         0.0779
     25 H2         -0.5450    1.8219   -0.8730 H         1 <0>         0.0901
     26 H3         -0.5280    1.8123    0.9069 H         1 <0>         0.0922
     27 H4         -0.0017   -0.4556   -2.1198 H         1 <0>         0.1769
     28 H5          0.0482   -2.9516    1.3568 H         1 <0>         0.1854
     29 H6         -0.4613   -4.1220   -1.0521 H         1 <0>         0.0810
     30 H7         -0.4826   -3.0763   -2.4924 H         1 <0>         0.0775
     31 H8          2.1562   -3.1550   -1.4888 H         1 <0>         0.4120
     32 H9          3.9704   -3.5838   -1.8124 H         1 <0>         0.1245
     33 H10         6.2314   -4.3182   -2.3658 H         1 <0>         0.1299
     34 H11         6.6003   -6.2809   -3.7957 H         1 <0>         0.1336
     35 H12         4.7182   -7.5418   -4.6977 H         1 <0>         0.1401
     36 H13         0.7262   -8.8594   -5.6062 H         1 <0>         0.1444
     37 H14        -1.4401   -9.8305   -6.2962 H         1 <0>         0.1387
     38 H15        -3.5823   -8.6591   -5.4413 H         1 <0>         0.1897
@<TRIPOS>BOND
     1    1    2 1
     2    1   24 1
     3    1   25 1
     4    1   26 1
     5    2    6 1
     6    2    3 1
     7    3    4 2
     8    3   27 1
     9    4    5 1
    10    4    7 1
    11    5    6 2
    12    5   28 1
    13    7    8 1
    14    7   29 1
    15    7   30 1
    16    8    9 1
    17    8   31 1
    18    9   18 ar
    19    9   10 ar
    20   10   15 ar
    21   10   11 ar
    22   11   12 ar
    23   11   32 1
    24   12   13 ar
    25   12   33 1
    26   13   14 ar
    27   13   34 1
    28   14   15 ar
    29   14   35 1
    30   15   16 ar
    31   16   17 ar
    32   17   18 ar
    33   17   19 1
    34   19   23 1
    35   19   20 2
    36   20   21 1
    37   20   36 1
    38   21   22 2
    39   21   37 1
    40   22   23 1
    41   22   38 1
@<TRIPOS>MOLECULE
ZINC39778264
   48    49     0     0     0
SMALL
USER_CHARGES

@<TRIPOS>ATOM
      1 C1         -0.0187    1.5258    0.0104 C.3       1 <0>        -0.1580
      2 C2          0.0021   -0.0041    0.0020 C.3       1 <0>        -0.0820
      3 H1          0.5123   -0.3556   -0.8948 H         1 <0>         0.0759
      4 C3         -1.4333   -0.5336    0.0129 C.3       1 <0>        -0.1182
      5 C4         -2.1494   -0.0402    1.2717 C.3       1 <0>        -0.1189
      6 C5         -1.4095   -0.5471    2.5112 C.3       1 <0>        -0.1304
      7 C6          0.0259   -0.0175    2.5003 C.3       1 <0>         0.1468
      8 H2          0.0111    1.0724    2.5063 H         1 <0>         0.0972
      9 C7          0.7421   -0.5109    1.2415 C.3       1 <0>        -0.0931
     10 H3          0.7568   -1.6008    1.2356 H         1 <0>         0.0769
     11 C8          2.1775    0.0187    1.2307 C.3       1 <0>        -0.1521
     12 N1          0.7345   -0.5028    3.6872 N.am      1 <0>        -0.7029
     13 C9          0.6336    0.1663    4.8528 C.2       1 <0>         0.5813
     14 O1         -0.0446    1.1715    4.9192 O.2       1 <0>        -0.5128
     15 C10         1.3530   -0.3264    6.0578 C.2       1 <0>         0.1236
     16 N2          2.1028   -1.3826    6.0845 N.2       1 <0>        -0.4036
     17 C11         2.6351   -1.5391    7.4434 C.3       1 <0>         0.0597
     18 H4          3.7239   -1.4904    7.4293 H         1 <0>         0.1419
     19 C12         2.0704   -0.3829    8.2388 C.2       1 <0>        -0.1870
     20 C13         1.3131    0.3234    7.3751 C.2       1 <0>        -0.0097
     21 C14         0.5457    1.5768    7.7085 C.3       1 <0>        -0.1235
     22 C15         2.3039   -0.0871    9.6588 C.2       1 <0>         0.5300
     23 O2          1.7818    0.8834   10.1712 O.2       1 <0>        -0.4889
     24 O3          3.0975   -0.8922   10.3936 O.3       1 <0>        -0.3467
     25 C16         3.2804   -0.5445   11.7675 C.3       1 <0>         0.0338
     26 C17         2.1739   -2.8697    8.0416 C.3       1 <0>        -0.1222
     27 H5          1.0039    1.9031    0.0027 H         1 <0>         0.0584
     28 H6         -0.5459    1.8868   -0.8726 H         1 <0>         0.0563
     29 H7         -0.5289    1.8773    0.9072 H         1 <0>         0.0616
     30 H8         -1.9605   -0.1726   -0.8702 H         1 <0>         0.0658
     31 H9         -1.4185   -1.6235    0.0069 H         1 <0>         0.0632
     32 H10        -2.1642    1.0497    1.2777 H         1 <0>         0.0688
     33 H11        -3.1720   -0.4175    1.2794 H         1 <0>         0.0658
     34 H12        -1.9196   -0.1955    3.4080 H         1 <0>         0.0690
     35 H13        -1.3947   -1.6369    2.5052 H         1 <0>         0.0651
     36 H14         2.1627    1.1086    1.2367 H         1 <0>         0.0607
     37 H15         2.7046   -0.3424    2.1137 H         1 <0>         0.0552
     38 H16         2.6876   -0.3328    0.3339 H         1 <0>         0.0592
     39 H17         1.2762   -1.3057    3.6342 H         1 <0>         0.4092
     40 H18         0.0221    1.9294    6.8199 H         1 <0>         0.1014
     41 H19        -0.1777    1.3616    8.4950 H         1 <0>         0.0847
     42 H20         1.2376    2.3460    8.0517 H         1 <0>         0.0845
     43 H21         3.7268    0.4476   11.8350 H         1 <0>         0.0633
     44 H22         2.3150   -0.5437   12.2737 H         1 <0>         0.0635
     45 H23         3.9387   -1.2722   12.2419 H         1 <0>         0.1064
     46 H24         2.5545   -3.6919    7.4356 H         1 <0>         0.0770
     47 H25         2.5541   -2.9619    9.0590 H         1 <0>         0.0829
     48 H26         1.0845   -2.9032    8.0564 H         1 <0>         0.0608
@<TRIPOS>BOND
     1    1    2 1
     2    1   27 1
     3    1   28 1
     4    1   29 1
     5    2    3 1
     6    2    9 1
     7    2    4 1
     8    4    5 1
     9    4   30 1
    10    4   31 1
    11    5    6 1
    12    5   32 1
    13    5   33 1
    14    6    7 1
    15    6   34 1
    16    6   35 1
    17    7    8 1
    18    7    9 1
    19    7   12 1
    20    9   10 1
    21    9   11 1
    22   11   36 1
    23   11   37 1
    24   11   38 1
    25   12   13 am
    26   12   39 1
    27   13   14 2
    28   13   15 1
    29   15   20 1
    30   15   16 2
    31   16   17 1
    32   17   18 1
    33   17   19 1
    34   17   26 1
    35   19   20 2
    36   19   22 1
    37   20   21 1
    38   21   40 1
    39   21   41 1
    40   21   42 1
    41   22   23 2
    42   22   24 1
    43   24   25 1
    44   25   43 1
    45   25   44 1
    46   25   45 1
    47   26   46 1
    48   26   47 1
    49   26   48 1
@<TRIPOS>MOLECULE
ZINC67655046
   46    49     0     0     0
SMALL
USER_CHARGES

@<TRIPOS>ATOM
      1 C1         -0.4778   -3.6951   -0.8014 C.3       1 <0>        -0.1517
      2 C2         -1.9538   -3.3604   -1.0256 C.3       1 <0>        -0.0548
      3 C3         -2.2574   -2.0073   -0.4355 C.2       1 <0>        -0.1123
      4 C4         -2.6830   -1.7511    0.8903 C.ar      1 <0>        -0.1037
      5 C5         -2.9425   -2.5745    1.9937 C.ar      1 <0>        -0.0653
      6 C6         -3.3507   -2.0214    3.1723 C.ar      1 <0>        -0.1454
      7 C7         -3.5121   -0.6465    3.2902 C.ar      1 <0>        -0.0910
      8 C8         -3.2639    0.1837    2.2204 C.ar      1 <0>        -0.1299
      9 C9         -2.8459   -0.3569    1.0073 C.ar      1 <0>         0.1063
     10 N1         -2.5273    0.1975   -0.2098 N.pl3     1 <0>        -0.5684
     11 H1         -2.5488    1.1437   -0.4223 H         1 <0>         0.4199
     12 C10        -2.1659   -0.8140   -1.0785 C.2       1 <0>         0.0395
     13 C11        -1.7510   -0.6288   -2.4772 C.2       1 <0>         0.5896
     14 O1         -0.6771   -0.1163   -2.7302 O.2       1 <0>        -0.4819
     15 N2         -2.5604   -1.0269   -3.4786 N.am      1 <0>        -0.6074
     16 C12        -3.9329   -1.5413   -3.3210 C.3       1 <0>         0.0992
     17 C13        -4.6190   -1.2641   -4.6820 C.3       1 <0>        -0.1314
     18 C14        -3.4582   -1.5316   -5.6762 C.3       1 <0>        -0.1263
     19 C15        -2.2231   -1.0140   -4.9095 C.3       1 <0>         0.1279
     20 H2         -1.9872    0.0021   -5.2257 H         1 <0>         0.0938
     21 C16        -1.0287   -1.9338   -5.1709 C.3       1 <0>         0.1261
     22 N3          0.1558   -1.4005   -4.4935 N.pl3     1 <0>        -0.3611
     23 C17         0.9355   -2.0661   -3.6159 C.2       1 <0>         0.0500
     24 C18         1.9206   -1.2269   -3.2206 C.2       1 <0>        -0.2611
     25 C19         1.7366   -0.0067   -3.8791 C.2       1 <0>         0.0534
     26 N4          0.6825   -0.1116   -4.6470 N.2       1 <0>        -0.2660
     27 H3         -0.2583   -4.6737   -1.2283 H         1 <0>         0.0571
     28 H4          0.1432   -2.9405   -1.2842 H         1 <0>         0.0595
     29 H5         -0.2668   -3.7094    0.2678 H         1 <0>         0.0581
     30 H6         -2.1648   -3.3460   -2.0949 H         1 <0>         0.0637
     31 H7         -2.5749   -4.1149   -0.5428 H         1 <0>         0.0747
     32 H8         -2.8201   -3.6444    1.9115 H         1 <0>         0.1225
     33 H9         -3.5504   -2.6583    4.0213 H         1 <0>         0.1241
     34 H10        -3.8359   -0.2248    4.2303 H         1 <0>         0.1273
     35 H11        -3.3923    1.2512    2.3220 H         1 <0>         0.1214
     36 H12        -3.9156   -2.6117   -3.1160 H         1 <0>         0.0737
     37 H13        -4.4480   -1.0093   -2.5212 H         1 <0>         0.0761
     38 H14        -5.4451   -1.9548   -4.8509 H         1 <0>         0.0904
     39 H15        -4.9573   -0.2299   -4.7455 H         1 <0>         0.0784
     40 H16        -3.3679   -2.5975   -5.8857 H         1 <0>         0.0836
     41 H17        -3.6018   -0.9672   -6.5975 H         1 <0>         0.0903
     42 H18        -1.2476   -2.9310   -4.7889 H         1 <0>         0.0937
     43 H19        -0.8402   -1.9888   -6.2430 H         1 <0>         0.0931
     44 H20         0.7977   -3.0857   -3.2877 H         1 <0>         0.1584
     45 H21         2.7093   -1.4582   -2.5199 H         1 <0>         0.1356
     46 H22         2.3600    0.8692   -3.7754 H         1 <0>         0.1704
@<TRIPOS>BOND
     1    1    2 1
     2    1   27 1
     3    1   28 1
     4    1   29 1
     5    2    3 1
     6    2   30 1
     7    2   31 1
     8    3   12 2
     9    3    4 1
    10    4    9 ar
    11    4    5 ar
    12    5    6 ar
    13    5   32 1
    14    6    7 ar
    15    6   33 1
    16    7    8 ar
    17    7   34 1
    18    8    9 ar
    19    8   35 1
    20    9   10 1
    21   10   11 1
    22   10   12 1
    23   12   13 1
    24   13   14 2
    25   13   15 am
    26   15   19 1
    27   15   16 1
    28   16   17 1
    29   16   36 1
    30   16   37 1
    31   17   18 1
    32   17   38 1
    33   17   39 1
    34   18   19 1
    35   18   40 1
    36   18   41 1
    37   19   20 1
    38   19   21 1
    39   21   22 1
    40   21   42 1
    41   21   43 1
    42   22   26 1
    43   22   23 1
    44   23   24 2
    45   23   44 1
    46   24   25 1
    47   24   45 1
    48   25   26 2
    49   25   46 1
@<TRIPOS>MOLECULE
ZINC06844518
   38    39     0     0     0
SMALL
USER_CHARGES
2-(2-chloro-5-methyl-phenoxy)-2-methyl-N-(5-methylisoxazol-3-yl)-propanamide
@<TRIPOS>ATOM
      1 C1         -2.0864   -1.2842    4.3589 C.3       1 <0>        -0.1169
      2 C2         -2.7213   -2.0923    3.2567 C.ar      1 <0>        -0.0458
      3 C3         -2.8065   -3.4678    3.3700 C.ar      1 <0>        -0.1422
      4 C4         -3.3883   -4.2123    2.3608 C.ar      1 <0>        -0.0716
      5 C5         -3.8861   -3.5826    1.2351 C.ar      1 <0>        -0.0707
      6 C6         -3.8015   -2.2019    1.1195 C.ar      1 <0>         0.1491
      7 C7         -3.2124   -1.4585    2.1316 C.ar      1 <0>        -0.1806
      8 O1         -4.2901   -1.5800    0.0140 O.3       1 <0>        -0.2693
      9 C8         -4.2795   -0.1511    0.0155 C.3       1 <0>         0.1077
     10 C9         -5.0906    0.3637    1.2063 C.3       1 <0>        -0.2015
     11 C10        -4.8991    0.3649   -1.2848 C.3       1 <0>        -0.1416
     12 C11        -2.8592    0.3406    0.1249 C.2       1 <0>         0.4987
     13 O2         -1.9460   -0.4543    0.1948 O.2       1 <0>        -0.4833
     14 N1         -2.6038    1.6638    0.1452 N.am      1 <0>        -0.6266
     15 C12        -1.2891    2.1190    0.2465 C.2       1 <0>         0.2429
     16 C13        -0.1159    1.3235    0.3363 C.2       1 <0>        -0.2289
     17 C14         0.8869    2.2282    0.4079 C.2       1 <0>        -0.0169
     18 O3          0.3138    3.4397    0.3672 O.3       1 <0>         0.1001
     19 N2         -0.8898    3.3633    0.2814 N.2       1 <0>        -0.3860
     20 C15         2.3609    1.9322    0.5124 C.3       1 <0>        -0.0764
     21 Cl1        -4.6166   -4.5176   -0.0321 Cl        1 <0>        -0.0571
     22 H1         -1.0182   -1.1838    4.1667 H         1 <0>         0.0759
     23 H2         -2.5438   -0.2954    4.3942 H         1 <0>         0.0649
     24 H3         -2.2380   -1.7890    5.3130 H         1 <0>         0.0731
     25 H4         -2.4175   -3.9614    4.2483 H         1 <0>         0.1337
     26 H5         -3.4536   -5.2865    2.4516 H         1 <0>         0.1407
     27 H6         -3.1415   -0.3846    2.0420 H         1 <0>         0.1316
     28 H7         -4.9750    1.4447    1.2846 H         1 <0>         0.0805
     29 H8         -6.1432    0.1204    1.0614 H         1 <0>         0.0920
     30 H9         -4.7314   -0.1073    2.1214 H         1 <0>         0.0891
     31 H10        -4.3738   -0.0699   -2.1351 H         1 <0>         0.0800
     32 H11        -5.9508    0.0813   -1.3237 H         1 <0>         0.0904
     33 H12        -4.8141    1.4510   -1.3219 H         1 <0>         0.0846
     34 H13        -3.3343    2.2997    0.0894 H         1 <0>         0.4195
     35 H14        -0.0416    0.2461    0.3415 H         1 <0>         0.1895
     36 H15         2.7890    1.8613   -0.4874 H         1 <0>         0.0912
     37 H16         2.8541    2.7334    1.0629 H         1 <0>         0.0864
     38 H17         2.5055    0.9880    1.0375 H         1 <0>         0.0941
@<TRIPOS>BOND
     1    1    2 1
     2    1   22 1
     3    1   23 1
     4    1   24 1
     5    2    7 ar
     6    2    3 ar
     7    3    4 ar
     8    3   25 1
     9    4    5 ar
    10    4   26 1
    11    5    6 ar
    12    5   21 1
    13    6    7 ar
    14    6    8 1
    15    7   27 1
    16    8    9 1
    17    9   10 1
    18    9   11 1
    19    9   12 1
    20   10   28 1
    21   10   29 1
    22   10   30 1
    23   11   31 1
    24   11   32 1
    25   11   33 1
    26   12   13 2
    27   12   14 am
    28   14   15 1
    29   14   34 1
    30   15   19 2
    31   15   16 1
    32   16   17 2
    33   16   35 1
    34   17   18 1
    35   17   20 1
    36   18   19 1
    37   20   36 1
    38   20   37 1
    39   20   38 1
@<TRIPOS>MOLECULE
ZINC20818400
   42    44     0     0     0
SMALL
USER_CHARGES
(5R)-5-ethyl-N-[(1-methylpyrazol-4-yl)methyleneamino]-4,5,6,7-tetrahydrobenzothiophene-2-carboxamide
@<TRIPOS>ATOM
      1 C1          1.9273    6.2710   -1.2246 C.3       1 <0>        -0.1581
      2 C2          0.7928    5.8804   -0.2753 C.3       1 <0>        -0.1197
      3 C3          0.4772    4.3927   -0.4428 C.3       1 <0>        -0.0892
      4 H1          0.2618    4.1746   -1.4992 H         1 <0>         0.0746
      5 C4         -0.7453    4.0354    0.4072 C.3       1 <0>        -0.1118
      6 C5         -1.2143    2.6232    0.0332 C.3       1 <0>        -0.0464
      7 C6         -0.0213    1.7181    0.0115 C.2       1 <0>        -0.1492
      8 C7          1.2933    2.0885    0.0009 C.2       1 <0>        -0.1374
      9 C8          2.2292    1.0669   -0.0130 C.2       1 <0>        -0.0554
     10 C9          1.7714   -0.2380   -0.0156 C.2       1 <0>        -0.2397
     11 S1          0.0021   -0.0041    0.0020 S.3       1 <0>         0.1346
     12 C10         2.5386   -1.4866   -0.0292 C.2       1 <0>         0.6266
     13 O1          3.7556   -1.4532   -0.0407 O.2       1 <0>        -0.4942
     14 N1          1.8969   -2.6718   -0.0289 N.am      1 <0>        -0.5882
     15 N2          2.6303   -3.8654   -0.0419 N.2       1 <0>        -0.2368
     16 C11         2.0126   -5.0064   -0.0417 C.2       1 <0>         0.1554
     17 C12         2.7851   -6.2637   -0.0554 C.2       1 <0>        -0.2125
     18 C13         4.1917   -6.3817   -0.0757 C.2       1 <0>         0.0922
     19 N3          4.4925   -7.6522   -0.0787 N.2       1 <0>        -0.2992
     20 N4          3.3079   -8.3974   -0.0711 N.pl3     1 <0>        -0.3656
     21 C14         2.2673   -7.5410   -0.0568 C.2       1 <0>         0.0938
     22 C15         3.2148   -9.8594   -0.0779 C.3       1 <0>         0.0942
     23 C16         1.6825    3.5645    0.0035 C.3       1 <0>        -0.0551
     24 H2          2.1542    7.3406   -1.1042 H         1 <0>         0.0549
     25 H3          1.6203    6.0759   -2.2627 H         1 <0>         0.0544
     26 H4          2.8230    5.6774   -0.9894 H         1 <0>         0.0571
     27 H5          1.0998    6.0755    0.7628 H         1 <0>         0.0641
     28 H6         -0.1029    6.4740   -0.5105 H         1 <0>         0.0648
     29 H7         -0.4731    4.0671    1.4725 H         1 <0>         0.0699
     30 H8         -1.5510    4.7587    0.2130 H         1 <0>         0.0768
     31 H9         -1.9415    2.2689    0.7786 H         1 <0>         0.0866
     32 H10        -1.6878    2.6449   -0.9594 H         1 <0>         0.0893
     33 H11         3.2872    1.2838   -0.0212 H         1 <0>         0.1461
     34 H12         0.7974   -2.7020   -0.0184 H         1 <0>         0.3976
     35 H13         0.9131   -5.0366   -0.0313 H         1 <0>         0.1219
     36 H14         4.8964   -5.5634   -0.0843 H         1 <0>         0.1925
     37 H15         1.2206   -7.8067   -0.0478 H         1 <0>         0.1851
     38 H16         2.1565  -10.1594   -0.0692 H         1 <0>         0.0963
     39 H17         3.7177  -10.2630    0.8133 H         1 <0>         0.0857
     40 H18         3.7002  -10.2535   -0.9829 H         1 <0>         0.0857
     41 H19         2.5190    3.7306   -0.6912 H         1 <0>         0.0798
     42 H20         1.9817    3.8693    1.0172 H         1 <0>         0.0784
@<TRIPOS>BOND
     1    1    2 1
     2    1   24 1
     3    1   25 1
     4    1   26 1
     5    2    3 1
     6    2   27 1
     7    2   28 1
     8    3    4 1
     9    3   23 1
    10    3    5 1
    11    5    6 1
    12    5   29 1
    13    5   30 1
    14    6    7 1
    15    6   31 1
    16    6   32 1
    17    7   11 1
    18    7    8 2
    19    8    9 1
    20    8   23 1
    21    9   10 2
    22    9   33 1
    23   10   11 1
    24   10   12 1
    25   12   13 2
    26   12   14 am
    27   14   15 1
    28   14   34 1
    29   15   16 2
    30   16   17 1
    31   16   35 1
    32   17   21 2
    33   17   18 1
    34   18   19 2
    35   18   36 1
    36   19   20 1
    37   20   21 1
    38   20   22 1
    39   21   37 1
    40   22   38 1
    41   22   39 1
    42   22   40 1
    43   23   41 1
    44   23   42 1
@<TRIPOS>MOLECULE
ZINC00313399
   49    50     0     0     0
SMALL
USER_CHARGES

@<TRIPOS>ATOM
      1 C1          1.2642    1.2271   -0.1580 C.3       1 <0>        -0.1144
      2 C2          0.6279   -0.1366   -0.0790 C.ar      1 <0>        -0.0707
      3 C3          0.0386   -0.6900   -1.2012 C.ar      1 <0>        -0.1358
      4 C4         -0.5459   -1.9411   -1.1330 C.ar      1 <0>        -0.0956
      5 C5         -0.5429   -2.6425    0.0570 C.ar      1 <0>        -0.1235
      6 C6          0.0478   -2.0897    1.1855 C.ar      1 <0>         0.1535
      7 C7          0.6388   -0.8349    1.1123 C.ar      1 <0>        -0.1286
      8 N1          0.0521   -2.7974    2.3926 N.am      1 <0>        -0.6660
      9 C8          0.1503   -2.1345    3.5620 C.2       1 <0>         0.5079
     10 O1          0.1340   -0.9218    3.5749 O.2       1 <0>        -0.4982
     11 C9          0.2802   -2.9001    4.8535 C.3       1 <0>         0.1414
     12 H1         -0.3801   -3.7672    4.8383 H         1 <0>         0.1041
     13 C10         1.7415   -3.3566    5.0483 C.3       1 <0>        -0.1220
     14 C11         1.9624   -3.1734    6.5731 C.3       1 <0>        -0.1304
     15 C12         1.1231   -1.9031    6.8586 C.3       1 <0>         0.1030
     16 N2         -0.0635   -2.0298    5.9875 N.am      1 <0>        -0.5891
     17 C13        -1.2601   -1.4453    6.1946 C.2       1 <0>         0.6771
     18 O2         -2.1669   -1.6212    5.4052 O.2       1 <0>        -0.5567
     19 O3         -1.4508   -0.6666    7.2763 O.3       1 <0>        -0.3525
     20 C14        -2.7439   -0.0790    7.4328 C.3       1 <0>         0.1346
     21 C15        -3.7977   -1.1840    7.5309 C.3       1 <0>        -0.1853
     22 C16        -2.7695    0.7648    8.7088 C.3       1 <0>        -0.1396
     23 C17        -3.0491    0.8112    6.2265 C.3       1 <0>        -0.1849
     24 C18        -1.1807   -4.0059    0.1306 C.3       1 <0>        -0.1146
     25 H2          2.3123    1.1233   -0.4388 H         1 <0>         0.0707
     26 H3          0.7455    1.8273   -0.9056 H         1 <0>         0.0673
     27 H4          1.1951    1.7171    0.8132 H         1 <0>         0.0669
     28 H5          0.0347   -0.1435   -2.1327 H         1 <0>         0.1225
     29 H6         -1.0055   -2.3704   -2.0110 H         1 <0>         0.1259
     30 H7          1.1027   -0.4040    1.9872 H         1 <0>         0.1427
     31 H8         -0.0156   -3.7650    2.3878 H         1 <0>         0.4104
     32 H9          1.8600   -4.4022    4.7643 H         1 <0>         0.0995
     33 H10         2.4225   -2.7222    4.4810 H         1 <0>         0.0861
     34 H11         1.5782   -4.0286    7.1290 H         1 <0>         0.0846
     35 H12         3.0156   -3.0045    6.7978 H         1 <0>         0.0949
     36 H13         0.8220   -1.8748    7.9058 H         1 <0>         0.0880
     37 H14         1.6900   -1.0082    6.6017 H         1 <0>         0.0752
     38 H15        -3.5803   -1.8182    8.3903 H         1 <0>         0.0591
     39 H16        -4.7841   -0.7358    7.6503 H         1 <0>         0.0708
     40 H17        -3.7794   -1.7851    6.6218 H         1 <0>         0.0862
     41 H18        -2.0188    1.5520    8.6390 H         1 <0>         0.0669
     42 H19        -3.7559    1.2130    8.8283 H         1 <0>         0.0814
     43 H20        -2.5521    0.1306    9.5683 H         1 <0>         0.0665
     44 H21        -3.0308    0.2100    5.3174 H         1 <0>         0.0870
     45 H22        -4.0355    1.2594    6.3459 H         1 <0>         0.0696
     46 H23        -2.2983    1.5983    6.1566 H         1 <0>         0.0595
     47 H24        -0.4386   -4.7675   -0.1090 H         1 <0>         0.0709
     48 H25        -1.5624   -4.1746    1.1376 H         1 <0>         0.0617
     49 H26        -2.0023   -4.0618   -0.5835 H         1 <0>         0.0721
@<TRIPOS>BOND
     1    1    2 1
     2    1   25 1
     3    1   26 1
     4    1   27 1
     5    2    7 ar
     6    2    3 ar
     7    3    4 ar
     8    3   28 1
     9    4    5 ar
    10    4   29 1
    11    5    6 ar
    12    5   24 1
    13    6    7 ar
    14    6    8 1
    15    7   30 1
    16    8    9 am
    17    8   31 1
    18    9   10 2
    19    9   11 1
    20   11   12 1
    21   11   16 1
    22   11   13 1
    23   13   14 1
    24   13   32 1
    25   13   33 1
    26   14   15 1
    27   14   34 1
    28   14   35 1
    29   15   16 1
    30   15   36 1
    31   15   37 1
    32   16   17 am
    33   17   18 2
    34   17   19 1
    35   19   20 1
    36   20   21 1
    37   20   22 1
    38   20   23 1
    39   21   38 1
    40   21   39 1
    41   21   40 1
    42   22   41 1
    43   22   42 1
    44   22   43 1
    45   23   44 1
    46   23   45 1
    47   23   46 1
    48   24   47 1
    49   24   48 1
    50   24   49 1
@<TRIPOS>MOLECULE
ZINC50268946
   31    32     0     0     0
SMALL
USER_CHARGES

@<TRIPOS>ATOM
      1 C1         -0.0167    1.3783    0.0096 C.ar      1 <0>         0.0114
      2 C2          1.1691    2.0872    0.0021 C.ar      1 <0>        -0.1931
      3 C3          2.3811    1.4099   -0.0131 C.ar      1 <0>         0.2925
      4 C4          2.3969    0.0199   -0.0206 C.ar      1 <0>        -0.1786
      5 C5          1.2072   -0.6825   -0.0130 C.ar      1 <0>         0.0270
      6 C6          0.0021   -0.0041    0.0020 C.ar      1 <0>        -0.1088
      7 N1         -1.2705   -0.7597    0.0101 N.pl3     1 <0>         0.0445
      8 O1         -2.3248   -0.1681    0.0233 O.2       1 <0>        -0.1649
      9 O2         -1.2558   -1.9686    0.0034 O.3       1 <0>        -0.1665
     10 Br1         4.0443   -0.9082   -0.0419 Br        1 <0>        -0.0177
     11 N2          3.5822    2.1238   -0.0212 N.pl3     1 <0>        -0.7162
     12 C7          3.5637    3.5886   -0.0136 C.3       1 <0>         0.1205
     13 C8          4.9996    4.1169   -0.0250 C.3       1 <0>         0.0760
     14 H1          5.5558    3.6872    0.8081 H         1 <0>         0.0813
     15 C9          4.9891    5.6473    0.0941 C.3       1 <0>        -0.1519
     16 C10         6.4420    6.1333    0.1321 C.3       1 <0>        -0.0832
     17 C11         7.2257    5.4549   -0.9582 C.2       1 <0>        -0.2765
     18 C12         6.8045    4.3715   -1.5555 C.2       1 <0>         0.0514
     19 O3          5.6325    3.7672   -1.2591 O.3       1 <0>        -0.3192
     20 H2         -0.9595    1.9048    0.0259 H         1 <0>         0.1595
     21 H3          1.1534    3.1670    0.0077 H         1 <0>         0.1533
     22 H4          1.2184   -1.7624   -0.0193 H         1 <0>         0.1616
     23 H5          4.4283    1.6495   -0.0317 H         1 <0>         0.4141
     24 H6          3.0367    3.9499   -0.8968 H         1 <0>         0.0846
     25 H7          3.0540    3.9410    0.8831 H         1 <0>         0.0931
     26 H8          4.4789    6.0797   -0.7666 H         1 <0>         0.0815
     27 H9          4.4786    5.9414    1.0112 H         1 <0>         0.0860
     28 H10         6.4682    7.2125   -0.0190 H         1 <0>         0.0816
     29 H11         6.8810    5.8910    1.0999 H         1 <0>         0.0731
     30 H12         8.1720    5.8795   -1.2590 H         1 <0>         0.1238
     31 H13         7.4249    3.9364   -2.3250 H         1 <0>         0.1599
@<TRIPOS>BOND
     1    1    6 ar
     2    1    2 ar
     3    1   20 1
     4    2    3 ar
     5    2   21 1
     6    3    4 ar
     7    3   11 1
     8    4    5 ar
     9    4   10 1
    10    5    6 ar
    11    5   22 1
    12    6    7 1
    13    7    8 2
    14    7    9 1
    15   11   12 1
    16   11   23 1
    17   12   13 1
    18   12   24 1
    19   12   25 1
    20   13   14 1
    21   13   19 1
    22   13   15 1
    23   15   16 1
    24   15   26 1
    25   15   27 1
    26   16   17 1
    27   16   28 1
    28   16   29 1
    29   17   18 2
    30   17   30 1
    31   18   19 1
    32   18   31 1
@<TRIPOS>MOLECULE
ZINC66818435
   38    41     0     0     0
SMALL
USER_CHARGES

@<TRIPOS>ATOM
      1 C1         -0.7002    1.0198    1.4367 C.3       1 <0>         0.1094
      2 N1         -0.5452   -0.4132    1.1743 N.pl3     1 <0>        -0.3806
      3 C2         -0.4704   -0.9965   -0.0554 C.ar      1 <0>         0.3686
      4 C3         -0.3256   -2.3803    0.1649 C.ar      1 <0>        -0.3352
      5 C4         -0.3191   -2.5779    1.5627 C.2       1 <0>         0.1047
      6 N2         -0.4422   -1.4187    2.1438 N.2       1 <0>        -0.2533
      7 C5         -0.2240   -3.2271   -0.9556 C.ar      1 <0>         0.5189
      8 N3         -0.2695   -2.6810   -2.1659 N.ar      1 <0>        -0.6080
      9 C6         -0.4065   -1.3763   -2.3232 C.ar      1 <0>         0.3897
     10 N4         -0.5049   -0.5458   -1.3084 N.ar      1 <0>        -0.5780
     11 N5         -0.0802   -4.5918   -0.8002 N.pl3     1 <0>        -0.6919
     12 C7          0.0239   -5.4563   -1.9783 C.3       1 <0>         0.1704
     13 C8          0.2156   -6.9069   -1.5312 C.3       1 <0>        -0.1163
     14 C9         -0.6361   -7.9763   -2.2182 C.3       1 <0>        -0.1452
     15 C10        -0.9362   -7.5707   -0.7738 C.3       1 <0>        -0.1656
     16 C11         1.6192   -7.2843   -1.1332 C.ar      1 <0>        -0.0443
     17 C12         2.6282   -7.2874   -2.0782 C.ar      1 <0>        -0.0947
     18 C13         3.9157   -7.6334   -1.7138 C.ar      1 <0>        -0.1072
     19 C14         4.1947   -7.9767   -0.4029 C.ar      1 <0>        -0.0353
     20 C15         3.1845   -7.9734    0.5425 C.ar      1 <0>        -0.1078
     21 C16         1.8985   -7.6217    0.1780 C.ar      1 <0>        -0.1020
     22 Cl1         5.8115   -8.4120    0.0555 Cl        1 <0>        -0.0680
     23 H1          0.2832    1.4847    1.5074 H         1 <0>         0.0745
     24 H2         -1.2618    1.4794    0.6235 H         1 <0>         0.0926
     25 H3         -1.2373    1.1614    2.3746 H         1 <0>         0.0908
     26 H4         -0.2236   -3.5290    2.0653 H         1 <0>         0.1928
     27 H5         -0.4384   -0.9757   -3.3257 H         1 <0>         0.2034
     28 H6         -0.0480   -4.9780    0.0891 H         1 <0>         0.4127
     29 H7         -0.8882   -5.3759   -2.5697 H         1 <0>         0.0781
     30 H8          0.8769   -5.1464   -2.5821 H         1 <0>         0.0798
     31 H9         -1.3329   -7.6464   -2.9887 H         1 <0>         0.1047
     32 H10        -0.1811   -8.9531   -2.3826 H         1 <0>         0.1025
     33 H11        -0.6786   -8.2807    0.0121 H         1 <0>         0.1021
     34 H12        -1.8304   -6.9740   -0.5940 H         1 <0>         0.1026
     35 H13         2.4102   -7.0198   -3.1016 H         1 <0>         0.1336
     36 H14         4.7038   -7.6362   -2.4522 H         1 <0>         0.1350
     37 H15         3.4016   -8.2415    1.5659 H         1 <0>         0.1346
     38 H16         1.1108   -7.6145    0.9168 H         1 <0>         0.1322
@<TRIPOS>BOND
     1    1    2 1
     2    1   23 1
     3    1   24 1
     4    1   25 1
     5    2    6 1
     6    2    3 1
     7    3   10 ar
     8    3    4 ar
     9    4    5 1
    10    4    7 ar
    11    5    6 2
    12    5   26 1
    13    7    8 ar
    14    7   11 1
    15    8    9 ar
    16    9   10 ar
    17    9   27 1
    18   11   12 1
    19   11   28 1
    20   12   13 1
    21   12   29 1
    22   12   30 1
    23   13   15 1
    24   13   14 1
    25   13   16 1
    26   14   15 1
    27   14   31 1
    28   14   32 1
    29   15   33 1
    30   15   34 1
    31   16   21 ar
    32   16   17 ar
    33   17   18 ar
    34   17   35 1
    35   18   19 ar
    36   18   36 1
    37   19   20 ar
    38   19   22 1
    39   20   21 ar
    40   20   37 1
    41   21   38 1
@<TRIPOS>MOLECULE
ZINC12023893
   44    45     0     0     0
SMALL
USER_CHARGES
(3-tert-butyl-1-methyl-pyrazol-4-yl)-(4-methyl-1-piperidyl)methanone
@<TRIPOS>ATOM
      1 C1          2.2644   -0.1147   -4.2000 C.3       1 <0>        -0.1480
      2 C2          2.2258    0.3630   -2.7469 C.3       1 <0>        -0.0925
      3 C3          3.6486    0.6671   -2.2722 C.3       1 <0>        -0.1298
      4 C4          3.6027    1.1779   -0.8287 C.3       1 <0>         0.1040
      5 N1          2.8877    0.1959   -0.0021 N.am      1 <0>        -0.6083
      6 C5          1.5464   -0.2352   -0.4188 C.3       1 <0>         0.1121
      7 C6          1.6153   -0.7302   -1.8669 C.3       1 <0>        -0.1300
      8 C7          3.4514   -0.2996    1.1174 C.2       1 <0>         0.6010
      9 O1          2.8148   -1.0398    1.8423 O.2       1 <0>        -0.5302
     10 C8          4.8398    0.0559    1.4631 C.2       1 <0>        -0.2784
     11 C9          5.3412    1.3307    1.6336 C.2       1 <0>         0.0889
     12 N2          6.6429    1.2129    1.9406 N.pl3     1 <0>        -0.3619
     13 N3          6.9717   -0.1470    1.9654 N.2       1 <0>        -0.2894
     14 C10         5.9050   -0.8448    1.6879 C.2       1 <0>         0.1365
     15 C11         5.8238   -2.3479    1.6166 C.3       1 <0>         0.0119
     16 C12         5.1891   -2.7619    0.2874 C.3       1 <0>        -0.1383
     17 C13         7.2310   -2.9400    1.7162 C.3       1 <0>        -0.1363
     18 C14         4.9686   -2.8679    2.7739 C.3       1 <0>        -0.1465
     19 C15         7.5638    2.3212    2.2045 C.3       1 <0>         0.0965
     20 H1          1.2510   -0.3302   -4.5386 H         1 <0>         0.0562
     21 H2          2.6992    0.6638   -4.8269 H         1 <0>         0.0552
     22 H3          2.8705   -1.0180   -4.2695 H         1 <0>         0.0546
     23 H4          1.6191    1.2659   -2.6777 H         1 <0>         0.0718
     24 H5          4.2493   -0.2413   -2.3178 H         1 <0>         0.0678
     25 H6          4.0911    1.4290   -2.9139 H         1 <0>         0.0742
     26 H7          3.0794    2.1335   -0.7957 H         1 <0>         0.0683
     27 H8          4.6182    1.3019   -0.4526 H         1 <0>         0.0867
     28 H9          0.8554    0.6051   -0.3524 H         1 <0>         0.0669
     29 H10         1.2051   -1.0436    0.2278 H         1 <0>         0.0940
     30 H11         0.6107   -0.9628   -2.2201 H         1 <0>         0.0762
     31 H12         2.2351   -1.6254   -1.9163 H         1 <0>         0.0676
     32 H13         4.7879    2.2533    1.5380 H         1 <0>         0.1808
     33 H14         5.7388   -2.3050   -0.5355 H         1 <0>         0.0532
     34 H15         5.2248   -3.8469    0.1901 H         1 <0>         0.0657
     35 H16         4.1517   -2.4286    0.2608 H         1 <0>         0.0604
     36 H17         7.6832   -2.6450    2.6632 H         1 <0>         0.0604
     37 H18         7.1723   -4.0272    1.6647 H         1 <0>         0.0602
     38 H19         7.8402   -2.5695    0.8917 H         1 <0>         0.0562
     39 H20         3.9194   -2.6467    2.5783 H         1 <0>         0.0855
     40 H21         5.1014   -3.9456    2.8681 H         1 <0>         0.0594
     41 H22         5.2759   -2.3816    3.6998 H         1 <0>         0.0519
     42 H23         7.5532    2.5569    3.2686 H         1 <0>         0.0799
     43 H24         8.5722    2.0347    1.9059 H         1 <0>         0.0943
     44 H25         7.2513    3.1967    1.6353 H         1 <0>         0.0911
@<TRIPOS>BOND
     1    1    2 1
     2    1   20 1
     3    1   21 1
     4    1   22 1
     5    2    7 1
     6    2    3 1
     7    2   23 1
     8    3    4 1
     9    3   24 1
    10    3   25 1
    11    4    5 1
    12    4   26 1
    13    4   27 1
    14    5    6 1
    15    5    8 am
    16    6    7 1
    17    6   28 1
    18    6   29 1
    19    7   30 1
    20    7   31 1
    21    8    9 2
    22    8   10 1
    23   10   14 1
    24   10   11 2
    25   11   12 1
    26   11   32 1
    27   12   13 1
    28   12   19 1
    29   13   14 2
    30   14   15 1
    31   15   16 1
    32   15   17 1
    33   15   18 1
    34   16   33 1
    35   16   34 1
    36   16   35 1
    37   17   36 1
    38   17   37 1
    39   17   38 1
    40   18   39 1
    41   18   40 1
    42   18   41 1
    43   19   42 1
    44   19   43 1
    45   19   44 1
@<TRIPOS>MOLECULE
ZINC13115236
   39    41     0     0     0
SMALL
USER_CHARGES

@<TRIPOS>ATOM
      1 C1          3.5332    1.6218    3.8103 C.3       1 <0>        -0.1227
      2 C2          4.0594    2.2507    2.5217 C.3       1 <0>        -0.1259
      3 C3          3.6878    1.3926    1.3184 C.3       1 <0>        -0.0609
      4 C4          4.7813    0.3621    1.0529 C.2       1 <0>        -0.0632
      5 C5          5.5954   -0.0935    2.0317 C.2       1 <0>        -0.1542
      6 S1          6.6636   -1.2648    1.2359 S.3       1 <0>         0.0669
      7 C6          6.0245   -1.1337   -0.4237 C.2       1 <0>         0.1192
      8 C7          5.0083   -0.1894   -0.2745 C.2       1 <0>        -0.1068
      9 C8          4.2137    0.2236   -1.3919 C.1       1 <0>         0.2708
     10 N1          3.5834    0.5512   -2.2784 N.1       1 <0>        -0.4189
     11 N2          6.4247   -1.7866   -1.5464 N.2       1 <0>        -0.4915
     12 C9          6.1085   -3.0420   -1.7196 C.2       1 <0>         0.4410
     13 N3          5.4217   -3.7136   -0.7484 N.pl3     1 <0>        -0.6805
     14 C10         5.9603   -4.9483   -0.1560 C.3       1 <0>         0.0956
     15 C11         5.9144   -4.8122    1.3702 C.3       1 <0>         0.0437
     16 O1          4.5934   -4.4399    1.7701 O.3       1 <0>        -0.3713
     17 C12         4.1655   -3.1715    1.2680 C.3       1 <0>         0.0273
     18 C13         4.1244   -3.2206   -0.2594 C.3       1 <0>         0.0847
     19 C14         5.6109    0.3088    3.4734 C.3       1 <0>        -0.0425
     20 C15         4.1817    0.2587    4.0297 C.3       1 <0>        -0.1137
     21 H1          3.7670    2.2733    4.6523 H         1 <0>         0.0665
     22 H2          2.4523    1.5006    3.7384 H         1 <0>         0.0656
     23 H3          3.6259    3.2437    2.4030 H         1 <0>         0.0688
     24 H4          5.1443    2.3371    2.5806 H         1 <0>         0.0750
     25 H5          2.7474    0.8788    1.5173 H         1 <0>         0.0815
     26 H6          3.5712    2.0301    0.4420 H         1 <0>         0.0717
     27 H7          6.3900   -3.5490   -2.6307 H         1 <0>         0.1921
     28 H8          5.3544   -5.7993   -0.4670 H         1 <0>         0.0755
     29 H9          6.9907   -5.0922   -0.4809 H         1 <0>         0.0907
     30 H10         6.1787   -5.7650    1.8288 H         1 <0>         0.1078
     31 H11         6.6209   -4.0456    1.6887 H         1 <0>         0.0583
     32 H12         3.1714   -2.9441    1.6531 H         1 <0>         0.1013
     33 H13         4.8655   -2.3990    1.5862 H         1 <0>         0.0729
     34 H14         3.9396   -2.2209   -0.6528 H         1 <0>         0.0847
     35 H15         3.3305   -3.8947   -0.5810 H         1 <0>         0.0777
     36 H16         6.2444   -0.3771    4.0357 H         1 <0>         0.0768
     37 H17         6.0012    1.3225    3.5640 H         1 <0>         0.0939
     38 H18         4.2103    0.0329    5.0957 H         1 <0>         0.0738
     39 H19         3.6107   -0.5082    3.5065 H         1 <0>         0.0685
@<TRIPOS>BOND
     1    1   20 1
     2    1    2 1
     3    1   21 1
     4    1   22 1
     5    2    3 1
     6    2   23 1
     7    2   24 1
     8    3    4 1
     9    3   25 1
    10    3   26 1
    11    4    8 1
    12    4    5 2
    13    5    6 1
    14    5   19 1
    15    6    7 1
    16    7    8 2
    17    7   11 1
    18    8    9 1
    19    9   10 3
    20   11   12 2
    21   12   13 1
    22   12   27 1
    23   13   18 1
    24   13   14 1
    25   14   15 1
    26   14   28 1
    27   14   29 1
    28   15   16 1
    29   15   30 1
    30   15   31 1
    31   16   17 1
    32   17   18 1
    33   17   32 1
    34   17   33 1
    35   18   34 1
    36   18   35 1
    37   19   20 1
    38   19   36 1
    39   19   37 1
    40   20   38 1
    41   20   39 1
@<TRIPOS>MOLECULE
ZINC43427670
   38    41     0     0     0
SMALL
USER_CHARGES

@<TRIPOS>ATOM
      1 C1         -0.0164    1.3588    0.0095 C.ar      1 <0>        -0.1187
      2 C2          1.1699    2.0872    0.0021 C.ar      1 <0>        -0.0838
      3 C3          2.3790    1.4600   -0.0132 C.ar      1 <0>        -0.1000
      4 C4          2.4378    0.0567   -0.0213 C.ar      1 <0>         0.1518
      5 C5          1.2298   -0.6808   -0.0132 C.ar      1 <0>        -0.1165
      6 C6          0.0021   -0.0041    0.0020 C.ar      1 <0>        -0.0749
      7 C7          1.2875   -2.0945   -0.0212 C.ar      1 <0>         0.3082
      8 C8          2.5543   -2.6967   -0.0370 C.ar      1 <0>        -0.1090
      9 C9          3.7002   -1.8858   -0.0440 C.ar      1 <0>         0.1823
     10 N1          3.6170   -0.5796   -0.0359 N.ar      1 <0>        -0.4708
     11 C10         2.6774   -4.1234   -0.0452 C.1       1 <0>         0.2612
     12 N2          2.7750   -5.2551   -0.0518 N.1       1 <0>        -0.4039
     13 N3          0.1370   -2.8549   -0.0134 N.pl3     1 <0>        -0.6771
     14 C11        -0.5204   -3.2967    1.2385 C.3       1 <0>         0.1122
     15 C12        -0.8419   -4.7891    1.1819 C.3       1 <0>         0.0455
     16 O1         -1.4312   -5.1645   -0.0764 O.3       1 <0>        -0.3605
     17 C13        -0.5807   -4.8392   -1.1541 C.3       1 <0>         0.0583
     18 H1          0.4183   -5.2331   -0.9675 H         1 <0>         0.0669
     19 C14        -0.5310   -3.2815   -1.2352 C.3       1 <0>         0.1286
     20 H2         -1.5424   -2.8763   -1.2662 H         1 <0>         0.0824
     21 C15         0.1823   -3.0281   -2.5564 C.3       1 <0>        -0.1271
     22 C16        -0.1917   -4.2321   -3.4588 C.3       1 <0>        -0.1158
     23 C17        -1.0257   -5.2071   -2.5687 C.3       1 <0>        -0.1131
     24 H3         -0.9624    1.8796    0.0259 H         1 <0>         0.1312
     25 H4          1.1310    3.1665    0.0082 H         1 <0>         0.1345
     26 H5          3.2899    2.0402   -0.0195 H         1 <0>         0.1413
     27 H6         -0.9241   -0.5596    0.0082 H         1 <0>         0.1324
     28 H7          4.6746   -2.3513   -0.0561 H         1 <0>         0.1697
     29 H8          0.1447   -3.1044    2.0804 H         1 <0>         0.0835
     30 H9         -1.4444   -2.7353    1.3763 H         1 <0>         0.0696
     31 H10         0.0779   -5.3559    1.3260 H         1 <0>         0.0527
     32 H11        -1.5366   -5.0330    1.9857 H         1 <0>         0.1070
     33 H12        -0.1685   -2.0977   -3.0029 H         1 <0>         0.0771
     34 H13         1.2608   -2.9915   -2.4028 H         1 <0>         0.0692
     35 H14        -0.7823   -3.8928   -4.3099 H         1 <0>         0.0778
     36 H15         0.7111   -4.7347   -3.8056 H         1 <0>         0.0703
     37 H16        -0.7867   -6.2472   -2.7905 H         1 <0>         0.0779
     38 H17        -2.0912   -5.0181   -2.6998 H         1 <0>         0.0798
@<TRIPOS>BOND
     1    1    6 ar
     2    1    2 ar
     3    1   24 1
     4    2    3 ar
     5    2   25 1
     6    3    4 ar
     7    3   26 1
     8    4   10 ar
     9    4    5 ar
    10    5    6 ar
    11    5    7 ar
    12    6   27 1
    13    7    8 ar
    14    7   13 1
    15    8    9 ar
    16    8   11 1
    17    9   10 ar
    18    9   28 1
    19   11   12 3
    20   13   19 1
    21   13   14 1
    22   14   15 1
    23   14   29 1
    24   14   30 1
    25   15   16 1
    26   15   31 1
    27   15   32 1
    28   16   17 1
    29   17   18 1
    30   17   23 1
    31   17   19 1
    32   19   20 1
    33   19   21 1
    34   21   22 1
    35   21   33 1
    36   21   34 1
    37   22   23 1
    38   22   35 1
    39   22   36 1
    40   23   37 1
    41   23   38 1
@<TRIPOS>MOLECULE
ZINC52836523
   35    36     0     0     0
SMALL
USER_CHARGES

@<TRIPOS>ATOM
      1 C1          0.6385   -0.3231   -1.3619 C.3       1 <0>        -0.1500
      2 C2         -0.0111    0.0298   -0.0224 C.3       1 <0>        -0.1317
      3 C3         -1.4787   -0.4024   -0.0377 C.3       1 <0>         0.1434
      4 H1         -1.9795    0.0297   -0.9040 H         1 <0>         0.0783
      5 C4         -1.5660   -1.9315   -0.1003 C.3       1 <0>         0.0524
      6 O1         -2.9272   -2.3328    0.0729 O.3       1 <0>        -0.3753
      7 C5         -3.4854   -1.9774    1.3402 C.3       1 <0>         0.0723
      8 H2         -2.8817   -2.4099    2.1381 H         1 <0>         0.0639
      9 C6         -3.4963   -0.4506    1.4766 C.3       1 <0>         0.1188
     10 N1         -2.1417    0.0510    1.1953 N.pl3     1 <0>        -0.6646
     11 C7         -1.5089    0.9235    2.0660 C.ar      1 <0>         0.4541
     12 C8         -1.7191    2.2997    1.9677 C.ar      1 <0>        -0.2200
     13 C9         -1.0644    3.1287    2.8600 C.ar      1 <0>         0.2304
     14 N2         -0.2644    2.5929    3.7730 N.ar      1 <0>        -0.5196
     15 C10        -0.0877    1.2889    3.8388 C.ar      1 <0>         0.3525
     16 N3         -0.6958    0.4623    3.0122 N.ar      1 <0>        -0.5274
     17 C11         0.8308    0.7265    4.8929 C.3       1 <0>        -0.0873
     18 Cl1        -1.2860    4.8489    2.7864 Cl        1 <0>        -0.0086
     19 C12        -4.9163   -2.5104    1.4359 C.3       1 <0>        -0.1454
     20 H3          1.6520    0.0770   -1.3909 H         1 <0>         0.0609
     21 H4          0.6723   -1.4067   -1.4751 H         1 <0>         0.0604
     22 H5          0.0539    0.1090   -2.1742 H         1 <0>         0.0601
     23 H6          0.5116   -0.4874    0.7823 H         1 <0>         0.0736
     24 H7          0.0491    1.1062    0.1382 H         1 <0>         0.0619
     25 H8         -1.2049   -2.2775   -1.0688 H         1 <0>         0.1038
     26 H9         -0.9553   -2.3638    0.6924 H         1 <0>         0.0573
     27 H10        -4.2009   -0.0233    0.7631 H         1 <0>         0.0711
     28 H11        -3.7869   -0.1747    2.4903 H         1 <0>         0.0785
     29 H12        -2.3762    2.7069    1.2136 H         1 <0>         0.1567
     30 H13         0.2601    0.5164    5.7975 H         1 <0>         0.0910
     31 H14         1.2833   -0.1949    4.5265 H         1 <0>         0.0900
     32 H15         1.6134    1.4514    5.1172 H         1 <0>         0.0907
     33 H16        -4.9074   -3.5957    1.3347 H         1 <0>         0.0685
     34 H17        -5.3412   -2.2391    2.4023 H         1 <0>         0.0727
     35 H18        -5.5198   -2.0761    0.6389 H         1 <0>         0.0665
@<TRIPOS>BOND
     1    1    2 1
     2    1   20 1
     3    1   21 1
     4    1   22 1
     5    2    3 1
     6    2   23 1
     7    2   24 1
     8    3    4 1
     9    3   10 1
    10    3    5 1
    11    5    6 1
    12    5   25 1
    13    5   26 1
    14    6    7 1
    15    7    8 1
    16    7    9 1
    17    7   19 1
    18    9   10 1
    19    9   27 1
    20    9   28 1
    21   10   11 1
    22   11   16 ar
    23   11   12 ar
    24   12   13 ar
    25   12   29 1
    26   13   14 ar
    27   13   18 1
    28   14   15 ar
    29   15   16 ar
    30   15   17 1
    31   17   30 1
    32   17   31 1
    33   17   32 1
    34   19   33 1
    35   19   34 1
    36   19   35 1
@<TRIPOS>MOLECULE
ZINC67172863
   33    35     0     0     0
SMALL
USER_CHARGES

@<TRIPOS>ATOM
      1 C1         -0.0184    1.5028    0.0103 C.3       1 <0>        -0.1182
      2 C2          0.0021   -0.0041    0.0020 C.ar      1 <0>        -0.1078
      3 C3          0.0058   -0.6893   -1.1994 C.ar      1 <0>        -0.0445
      4 C4          0.0290   -2.0707   -1.2233 C.ar      1 <0>        -0.1414
      5 C5          0.0469   -2.7793   -0.0311 C.ar      1 <0>         0.2180
      6 C6          0.0359   -2.0722    1.1752 C.ar      1 <0>        -0.6608
      7 C7          0.0230   -0.7044    1.1995 C.ar      1 <0>         0.0093
      8 S1          0.0376   -3.0492    2.6528 S.o2      1 <0>         2.5753
      9 O1         -1.2985   -3.4783    2.8764 O.2       1 <0>        -0.9131
     10 O2          0.7968   -2.3432    3.6246 O.2       1 <0>        -0.9240
     11 C8          0.9815   -4.4833    2.1795 C.2       1 <0>        -0.6811
     12 C9          0.8345   -4.8837    0.8917 C.2       1 <0>         0.3401
     13 N1          0.0822   -4.1732   -0.0087 N.pl3     1 <0>        -0.5676
     14 C10        -0.7391   -4.9187   -0.9776 C.3       1 <0>         0.1054
     15 C11         0.1029   -6.0397   -1.5919 C.3       1 <0>        -0.1428
     16 C12         0.6366   -6.9393   -0.4726 C.3       1 <0>        -0.1252
     17 C13         1.5713   -6.1168    0.4210 C.3       1 <0>        -0.1097
     18 C14         1.8398   -5.1687    3.0982 C.1       1 <0>         0.2938
     19 N2          2.5208   -5.7125    3.8270 N.1       1 <0>        -0.4056
     20 H1          1.0042    1.8801    0.0026 H         1 <0>         0.0777
     21 H2         -0.5455    1.8639   -0.8728 H         1 <0>         0.0727
     22 H3         -0.5286    1.8543    0.9071 H         1 <0>         0.0738
     23 H4         -0.0099   -0.1390   -2.1285 H         1 <0>         0.1402
     24 H5          0.0328   -2.5966   -2.1666 H         1 <0>         0.1406
     25 H6          0.0248   -0.1754    2.1410 H         1 <0>         0.1480
     26 H7         -1.6023   -5.3481   -0.4693 H         1 <0>         0.0917
     27 H8         -1.0767   -4.2439   -1.7643 H         1 <0>         0.1023
     28 H9         -0.5145   -6.6292   -2.2697 H         1 <0>         0.0949
     29 H10         0.9389   -5.6078   -2.1419 H         1 <0>         0.0789
     30 H11        -0.1962   -7.3175    0.1203 H         1 <0>         0.0795
     31 H12         1.1872   -7.7741   -0.9063 H         1 <0>         0.0875
     32 H13         2.4532   -5.8209   -0.1471 H         1 <0>         0.1111
     33 H14         1.8722   -6.7136    1.2821 H         1 <0>         0.1010
@<TRIPOS>BOND
     1    1    2 1
     2    1   20 1
     3    1   21 1
     4    1   22 1
     5    2    7 ar
     6    2    3 ar
     7    3    4 ar
     8    3   23 1
     9    4    5 ar
    10    4   24 1
    11    5   13 1
    12    5    6 ar
    13    6    7 ar
    14    6    8 1
    15    7   25 1
    16    8    9 2
    17    8   10 2
    18    8   11 1
    19   11   12 2
    20   11   18 1
    21   12   17 1
    22   12   13 1
    23   13   14 1
    24   14   15 1
    25   14   26 1
    26   14   27 1
    27   15   16 1
    28   15   28 1
    29   15   29 1
    30   16   17 1
    31   16   30 1
    32   16   31 1
    33   17   32 1
    34   17   33 1
    35   18   19 3
@<TRIPOS>MOLECULE
ZINC37717446
   47    48     0     0     0
SMALL
USER_CHARGES

@<TRIPOS>ATOM
      1 C1         -0.0187    1.5258    0.0104 C.3       1 <0>        -0.1509
      2 C2          0.0021   -0.0041    0.0020 C.3       1 <0>        -0.0897
      3 C3         -1.4338   -0.5335    0.0112 C.3       1 <0>        -0.1308
      4 C4         -1.4095   -2.0646   -0.0322 C.3       1 <0>         0.1193
      5 N1         -0.5782   -2.5560    1.0751 N.pl3     1 <0>        -1.0044
      6 C5          0.7913   -2.0416    1.2125 C.3       1 <0>         0.1184
      7 C6          0.7423   -0.5108    1.2420 C.3       1 <0>        -0.1302
      8 S1         -1.1734   -3.6680    2.1481 S.o2      1 <0>         2.7830
      9 O1         -0.4206   -3.5214    3.3444 O.2       1 <0>        -0.9719
     10 O2         -2.5887   -3.5437    2.1185 O.2       1 <0>        -0.9674
     11 N2         -0.8174   -5.1689    1.5458 N.pl3     1 <0>        -1.1311
     12 C7          0.5784   -5.5960    1.4212 C.3       1 <0>         0.1172
     13 C8          0.6312   -7.1100    1.2063 C.3       1 <0>        -0.1230
     14 C9          2.0889   -7.5560    1.0763 C.3       1 <0>        -0.1100
     15 H1          2.6512   -7.2213    1.9480 H         1 <0>         0.1009
     16 C10         2.6988   -6.9479   -0.1901 C.3       1 <0>        -0.1394
     17 C11         4.1319   -7.4627   -0.3526 C.3       1 <0>        -0.1479
     18 C12         4.1172   -8.9922   -0.3929 C.3       1 <0>        -0.0087
     19 N3          3.5474   -9.5128    0.8557 N.4       1 <0>        -0.5049
     20 C13         2.1500   -9.0822    0.9841 C.3       1 <0>        -0.0058
     21 H2          1.0039    1.9031    0.0027 H         1 <0>         0.0569
     22 H3         -0.5459    1.8868   -0.8726 H         1 <0>         0.0578
     23 H4         -0.5289    1.8773    0.9072 H         1 <0>         0.0566
     24 H5          0.5127   -0.3554   -0.8946 H         1 <0>         0.0713
     25 H6         -1.9375   -0.2032    0.9196 H         1 <0>         0.0707
     26 H7         -1.9673   -0.1533   -0.8600 H         1 <0>         0.0792
     27 H8         -2.4239   -2.4493    0.0738 H         1 <0>         0.0930
     28 H9         -0.9879   -2.3966   -0.9810 H         1 <0>         0.0693
     29 H10         1.2290   -2.4111    2.1398 H         1 <0>         0.0901
     30 H11         1.3923   -2.3717    0.3653 H         1 <0>         0.0670
     31 H12         1.7577   -0.1143    1.2468 H         1 <0>         0.0777
     32 H13         0.2181   -0.1807    2.1388 H         1 <0>         0.0709
     33 H14        -1.5331   -5.7653    1.2754 H         1 <0>         0.4185
     34 H15         1.0381   -5.0921    0.5710 H         1 <0>         0.0686
     35 H16         1.1196   -5.3392    2.3319 H         1 <0>         0.0815
     36 H17         0.1715   -7.6139    2.0565 H         1 <0>         0.0865
     37 H18         0.0900   -7.3668    0.2957 H         1 <0>         0.0842
     38 H19         2.1060   -7.2404   -1.0568 H         1 <0>         0.0850
     39 H20         2.7093   -5.8614   -0.1040 H         1 <0>         0.0968
     40 H21         4.5536   -7.0781   -1.2812 H         1 <0>         0.1135
     41 H22         4.7370   -7.1266    0.4894 H         1 <0>         0.0896
     42 H23         3.5120   -9.3272   -1.2353 H         1 <0>         0.1303
     43 H24         5.1359   -9.3620   -0.5087 H         1 <0>         0.1336
     44 H25         3.5883  -10.5209    0.8483 H         1 <0>         0.4332
     45 H26         1.7167   -9.5178    1.8845 H         1 <0>         0.1350
     46 H27         1.5866   -9.4160    0.1127 H         1 <0>         0.1320
     47 H28         4.0789   -9.1624    1.6385 H         1 <0>         0.4286
@<TRIPOS>BOND
     1    1    2 1
     2    1   21 1
     3    1   22 1
     4    1   23 1
     5    2    7 1
     6    2    3 1
     7    2   24 1
     8    3    4 1
     9    3   25 1
    10    3   26 1
    11    4    5 1
    12    4   27 1
    13    4   28 1
    14    5    6 1
    15    5    8 1
    16    6    7 1
    17    6   29 1
    18    6   30 1
    19    7   31 1
    20    7   32 1
    21    8    9 2
    22    8   10 2
    23    8   11 1
    24   11   12 1
    25   11   33 1
    26   12   13 1
    27   12   34 1
    28   12   35 1
    29   13   14 1
    30   13   36 1
    31   13   37 1
    32   14   15 1
    33   14   20 1
    34   14   16 1
    35   16   17 1
    36   16   38 1
    37   16   39 1
    38   17   18 1
    39   17   40 1
    40   17   41 1
    41   18   19 1
    42   18   42 1
    43   18   43 1
    44   19   20 1
    45   19   44 1
    46   19   47 1
    47   20   45 1
    48   20   46 1
@<TRIPOS>MOLECULE
ZINC44929743
   43    43     0     0     0
SMALL
USER_CHARGES

@<TRIPOS>ATOM
      1 C1         -0.0187    1.5258    0.0104 C.3       1 <0>        -0.1705
      2 C2          0.0021   -0.0041    0.0020 C.3       1 <0>         0.1423
      3 H1          0.5123   -0.3556   -0.8948 H         1 <0>         0.0982
      4 C3         -1.4333   -0.5336    0.0129 C.3       1 <0>        -0.1043
      5 C4         -2.1733   -0.0268   -1.2266 C.3       1 <0>        -0.1524
      6 C5         -1.4126   -2.0635    0.0045 C.3       1 <0>        -0.1510
      7 N1          0.7106   -0.4894    1.1889 N.am      1 <0>        -0.6955
      8 C6          2.0538   -0.5998    1.1737 C.2       1 <0>         0.4989
      9 O1          2.6758   -0.2974    0.1774 O.2       1 <0>        -0.5257
     10 C7          2.7826   -1.0990    2.3946 C.3       1 <0>        -0.0460
     11 N2          4.2265   -1.1274    2.1254 N.4       1 <0>        -0.4902
     12 C8          4.9370   -1.6140    3.3155 C.3       1 <0>         0.0687
     13 C9          4.5663   -0.7276    4.5036 C.3       1 <0>        -0.1614
     14 C10         5.7255   -0.7011    5.5387 C.3       1 <0>        -0.5591
     15 S1          7.1665   -0.6401    4.3853 S.o2      1 <0>         2.3785
     16 O2          8.2549   -1.3511    4.9591 O.2       1 <0>        -0.8987
     17 O3          7.3553    0.6973    3.9436 O.2       1 <0>        -0.9039
     18 C11         6.4482   -1.6365    3.0137 C.3       1 <0>        -0.6250
     19 C12         4.4747   -3.0423    3.6108 C.3       1 <0>        -0.1860
     20 H2          1.0039    1.9031    0.0027 H         1 <0>         0.0610
     21 H3         -0.5459    1.8868   -0.8726 H         1 <0>         0.0813
     22 H4         -0.5289    1.8773    0.9072 H         1 <0>         0.0627
     23 H5         -1.9435   -0.1821    0.9097 H         1 <0>         0.0802
     24 H6         -1.6631   -0.3783   -2.1234 H         1 <0>         0.0609
     25 H7         -3.1959   -0.4041   -1.2189 H         1 <0>         0.0671
     26 H8         -2.1881    1.0631   -1.2207 H         1 <0>         0.0649
     27 H9         -0.9024   -2.4150   -0.8923 H         1 <0>         0.0586
     28 H10        -0.8854   -2.4246    0.8875 H         1 <0>         0.0498
     29 H11        -2.4352   -2.4408    0.0122 H         1 <0>         0.0658
     30 H12         0.2131   -0.7312    1.9857 H         1 <0>         0.4096
     31 H13         2.5826   -0.4337    3.2345 H         1 <0>         0.1651
     32 H14         2.4385   -2.1044    2.6374 H         1 <0>         0.1675
     33 H15         4.4117   -1.7432    1.3479 H         1 <0>         0.4411
     34 H16         4.3742    0.2859    4.1514 H         1 <0>         0.1117
     35 H17         3.6671   -1.1193    4.9792 H         1 <0>         0.1341
     36 H18         5.6793    0.1902    6.1643 H         1 <0>         0.1638
     37 H19         5.7389   -1.6078    6.1436 H         1 <0>         0.1562
     38 H20         6.8303   -2.6570    3.0386 H         1 <0>         0.1781
     39 H21         6.6551   -1.1705    2.0504 H         1 <0>         0.1616
     40 H22         4.7118   -3.6837    2.7620 H         1 <0>         0.0959
     41 H23         4.9849   -3.4128    4.4999 H         1 <0>         0.1166
     42 H24         3.3980   -3.0479    3.7808 H         1 <0>         0.0925
     43 H25         4.5451   -0.1968    1.9006 H         1 <0>         0.4374
@<TRIPOS>BOND
     1    1    2 1
     2    1   20 1
     3    1   21 1
     4    1   22 1
     5    2    3 1
     6    2    4 1
     7    2    7 1
     8    4    5 1
     9    4    6 1
    10    4   23 1
    11    5   24 1
    12    5   25 1
    13    5   26 1
    14    6   27 1
    15    6   28 1
    16    6   29 1
    17    7    8 am
    18    7   30 1
    19    8    9 2
    20    8   10 1
    21   10   11 1
    22   10   31 1
    23   10   32 1
    24   11   12 1
    25   11   33 1
    26   11   43 1
    27   12   18 1
    28   12   13 1
    29   12   19 1
    30   13   14 1
    31   13   34 1
    32   13   35 1
    33   14   15 1
    34   14   36 1
    35   14   37 1
    36   15   16 2
    37   15   17 2
    38   15   18 1
    39   18   38 1
    40   18   39 1
    41   19   40 1
    42   19   41 1
    43   19   42 1
@<TRIPOS>MOLECULE
ZINC50779292
   43    45     0     0     0
SMALL
USER_CHARGES

@<TRIPOS>ATOM
      1 C1         -0.0187    1.5258    0.0104 C.3       1 <0>        -0.1684
      2 C2          0.0021   -0.0041    0.0020 C.3       1 <0>         0.1139
      3 N1          0.6878   -0.4765   -1.2033 N.pl3     1 <0>        -0.7080
      4 C3          0.8306   -1.8347   -1.4311 C.ar      1 <0>         0.4351
      5 C4          0.3133   -2.7442   -0.5100 C.ar      1 <0>        -0.2444
      6 C5          0.4564   -4.0860   -0.7384 C.ar      1 <0>         0.0332
      7 C6          1.1243   -4.4997   -1.9014 C.ar      1 <0>        -0.2745
      8 C7          1.6168   -3.5337   -2.7800 C.ar      1 <0>         0.1979
      9 N2          1.4529   -2.2523   -2.5251 N.ar      1 <0>        -0.5495
     10 C8          1.3035   -5.9353   -2.1907 C.2       1 <0>         0.5855
     11 O1          0.8713   -6.7697   -1.4190 O.2       1 <0>        -0.5274
     12 N3          1.9464   -6.3220   -3.3104 N.am      1 <0>        -0.7277
     13 C9          2.1245   -7.7474   -3.5976 C.3       1 <0>         0.1346
     14 H1          1.2688   -8.3242   -3.2465 H         1 <0>         0.1264
     15 C10         3.4443   -8.2784   -2.9790 C.3       1 <0>        -0.1570
     16 C11         3.7997   -9.4723   -3.8899 C.3       1 <0>        -0.0094
     17 N4          3.1116   -9.2599   -5.1766 N.4       1 <0>        -0.3593
     18 C12         2.3695   -7.9825   -5.1090 C.3       1 <0>        -0.0123
     19 C13         4.0999   -9.2012   -6.2619 C.3       1 <0>        -0.0819
     20 C14         3.8536  -10.0801   -7.4899 C.3       1 <0>        -0.1530
     21 C15         4.9624  -10.4423   -6.4998 C.3       1 <0>        -0.1551
     22 H2          1.0039    1.9031    0.0027 H         1 <0>         0.0657
     23 H3         -0.5459    1.8868   -0.8726 H         1 <0>         0.0658
     24 H4         -0.5289    1.8773    0.9072 H         1 <0>         0.0818
     25 H5          0.5293   -0.3651    0.8851 H         1 <0>         0.0713
     26 H6         -1.0205   -0.3814    0.0098 H         1 <0>         0.0714
     27 H7          1.0417    0.1622   -1.8418 H         1 <0>         0.4105
     28 H8         -0.1953   -2.3933    0.3758 H         1 <0>         0.1427
     29 H9          0.0645   -4.8100   -0.0394 H         1 <0>         0.1468
     30 H10         2.1325   -3.8396   -3.6782 H         1 <0>         0.1530
     31 H11         2.2913   -5.6564   -3.9260 H         1 <0>         0.4063
     32 H12         4.2231   -7.5169   -3.0203 H         1 <0>         0.1030
     33 H13         3.2829   -8.6108   -1.9535 H         1 <0>         0.1194
     34 H14         4.8775   -9.5104   -4.0477 H         1 <0>         0.1364
     35 H15         3.4563  -10.4012   -3.4347 H         1 <0>         0.1350
     36 H16         1.4206   -8.0657   -5.6389 H         1 <0>         0.1446
     37 H17         2.9686   -7.1734   -5.5267 H         1 <0>         0.1372
     38 H18         4.5630   -8.2279   -6.4239 H         1 <0>         0.1753
     39 H19         2.9583  -10.7018   -7.4924 H         1 <0>         0.1206
     40 H20         4.1546   -9.6849   -8.4601 H         1 <0>         0.1338
     41 H21         5.9929  -10.2855   -6.8187 H         1 <0>         0.1338
     42 H22         4.7966  -11.3024   -5.8510 H         1 <0>         0.1204
     43 H23         2.4674  -10.0177   -5.3462 H         1 <0>         0.4265
@<TRIPOS>BOND
     1    1    2 1
     2    1   22 1
     3    1   23 1
     4    1   24 1
     5    2    3 1
     6    2   25 1
     7    2   26 1
     8    3    4 1
     9    3   27 1
    10    4    9 ar
    11    4    5 ar
    12    5    6 ar
    13    5   28 1
    14    6    7 ar
    15    6   29 1
    16    7    8 ar
    17    7   10 1
    18    8    9 ar
    19    8   30 1
    20   10   11 2
    21   10   12 am
    22   12   13 1
    23   12   31 1
    24   13   14 1
    25   13   18 1
    26   13   15 1
    27   15   16 1
    28   15   32 1
    29   15   33 1
    30   16   17 1
    31   16   34 1
    32   16   35 1
    33   17   18 1
    34   17   19 1
    35   17   43 1
    36   18   36 1
    37   18   37 1
    38   19   21 1
    39   19   20 1
    40   19   38 1
    41   20   21 1
    42   20   39 1
    43   20   40 1
    44   21   41 1
    45   21   42 1
@<TRIPOS>MOLECULE
ZINC62895056
   49    51     0     0     0
SMALL
USER_CHARGES

@<TRIPOS>ATOM
      1 C1         -1.5696   -4.9567   -2.1695 C.3       1 <0>        -0.1508
      2 C2         -0.2668   -4.2175   -1.8582 C.3       1 <0>        -0.1330
      3 C3         -0.5758   -2.7554   -1.5299 C.3       1 <0>        -0.1061
      4 C4          0.7174   -2.0353   -1.1428 C.3       1 <0>        -0.0905
      5 C5          1.7332   -2.0640   -2.3150 C.3       1 <0>        -0.1240
      6 C6          2.5838   -0.8027   -2.0228 C.3       1 <0>        -0.0107
      7 N1          1.6196    0.1914   -1.5053 N.4       1 <0>        -0.5118
      8 C7          0.4623   -0.5268   -0.9406 C.3       1 <0>        -0.0168
      9 C8          1.3138   -2.6460    0.0991 C.2       1 <0>         0.5439
     10 O1          2.3666   -3.2446    0.0350 O.2       1 <0>        -0.5013
     11 N2          0.6773   -2.5269    1.2811 N.am      1 <0>        -0.5992
     12 C9         -0.5443   -1.7380    1.5235 C.3       1 <0>         0.0810
     13 C10        -1.1981   -2.3912    2.7667 C.3       1 <0>        -0.1338
     14 C11         0.0472   -2.7663    3.6127 C.3       1 <0>        -0.1274
     15 C12         1.0825   -3.1673    2.5409 C.3       1 <0>         0.1190
     16 H1          2.0718   -2.8158    2.8340 H         1 <0>         0.1079
     17 C13         1.0965   -4.6649    2.3733 C.2       1 <0>         0.5114
     18 O2          0.7978   -5.1585    1.3064 O.2       1 <0>        -0.5174
     19 N3          1.4410   -5.4558    3.4088 N.am      1 <0>        -0.6985
     20 C14         1.4546   -6.9116    3.2458 C.3       1 <0>         0.0753
     21 C15         0.8498   -7.7541    4.3706 C.3       1 <0>        -0.1893
     22 C16         2.3665   -7.7178    4.1728 C.3       1 <0>        -0.1859
     23 H2         -2.2295   -4.9105   -1.3031 H         1 <0>         0.0549
     24 H3         -2.0582   -4.4880   -3.0237 H         1 <0>         0.0544
     25 H4         -1.3495   -5.9983   -2.4033 H         1 <0>         0.0613
     26 H5          0.2218   -4.6862   -1.0039 H         1 <0>         0.0855
     27 H6          0.3931   -4.2637   -2.7245 H         1 <0>         0.0650
     28 H7         -1.0136   -2.2717   -2.4031 H         1 <0>         0.0859
     29 H8         -1.2795   -2.7106   -0.6987 H         1 <0>         0.0835
     30 H9          2.3457   -2.9649   -2.2789 H         1 <0>         0.1328
     31 H10         1.2242   -1.9779   -3.2750 H         1 <0>         0.1110
     32 H11         3.3425   -1.0223   -1.2716 H         1 <0>         0.1364
     33 H12         3.0496   -0.4386   -2.9385 H         1 <0>         0.1440
     34 H13         2.0580    0.7473   -0.7864 H         1 <0>         0.4326
     35 H14        -0.4480   -0.2314   -1.4623 H         1 <0>         0.1486
     36 H15         0.3714   -0.3054    0.1228 H         1 <0>         0.1382
     37 H16        -0.2898   -0.6986    1.7308 H         1 <0>         0.0783
     38 H17        -1.2135   -1.8017    0.6654 H         1 <0>         0.0884
     39 H18        -1.8298   -1.6779    3.2961 H         1 <0>         0.0986
     40 H19        -1.7639   -3.2805    2.4887 H         1 <0>         0.0852
     41 H20         0.3951   -1.9084    4.1882 H         1 <0>         0.0960
     42 H21        -0.1716   -3.6089    4.2686 H         1 <0>         0.0939
     43 H22         1.6799   -5.0610    4.2620 H         1 <0>         0.4023
     44 H23         1.3304   -7.2715    2.2244 H         1 <0>         0.1377
     45 H24         0.4418   -7.2252    5.2319 H         1 <0>         0.0984
     46 H25         0.3274   -8.6685    4.0894 H         1 <0>         0.1054
     47 H26         2.8419   -8.6082    3.7615 H         1 <0>         0.1069
     48 H27         2.9563   -7.1649    4.9040 H         1 <0>         0.0991
     49 H28         1.3134    0.7907   -2.2570 H         1 <0>         0.4336
@<TRIPOS>BOND
     1    1    2 1
     2    1   23 1
     3    1   24 1
     4    1   25 1
     5    2    3 1
     6    2   26 1
     7    2   27 1
     8    3    4 1
     9    3   28 1
    10    3   29 1
    11    4    8 1
    12    4    5 1
    13    4    9 1
    14    5    6 1
    15    5   30 1
    16    5   31 1
    17    6    7 1
    18    6   32 1
    19    6   33 1
    20    7    8 1
    21    7   34 1
    22    7   49 1
    23    8   35 1
    24    8   36 1
    25    9   10 2
    26    9   11 am
    27   11   15 1
    28   11   12 1
    29   12   13 1
    30   12   37 1
    31   12   38 1
    32   13   14 1
    33   13   39 1
    34   13   40 1
    35   14   15 1
    36   14   41 1
    37   14   42 1
    38   15   16 1
    39   15   17 1
    40   17   18 2
    41   17   19 am
    42   19   20 1
    43   19   43 1
    44   20   22 1
    45   20   21 1
    46   20   44 1
    47   21   22 1
    48   21   45 1
    49   21   46 1
    50   22   47 1
    51   22   48 1
@<TRIPOS>MOLECULE
ZINC58363550
   43    45     0     0     0
SMALL
USER_CHARGES

@<TRIPOS>ATOM
      1 C1          0.5432    1.5107   -0.1386 C.3       1 <0>        -0.1723
      2 C2          0.5737    0.0040   -0.1535 C.2       1 <0>         0.5153
      3 O1          1.1145   -0.6005    0.7483 O.2       1 <0>        -0.5192
      4 N1          0.0001   -0.6716   -1.1688 N.am      1 <0>        -0.6748
      5 C3          0.1091   -2.0667   -1.2318 C.ar      1 <0>         0.1127
      6 C4          0.1188   -2.8138   -0.0660 C.ar      1 <0>        -0.0333
      7 C5          0.2272   -4.2037   -0.1337 C.ar      1 <0>        -0.1399
      8 C6          0.3253   -4.8330   -1.3766 C.ar      1 <0>        -0.0732
      9 C7          0.3150   -4.0816   -2.5329 C.ar      1 <0>        -0.1390
     10 C8          0.2021   -2.7028   -2.4667 C.ar      1 <0>         0.1090
     11 F1          0.1870   -1.9727   -3.6033 F         1 <0>        -0.1242
     12 C9          0.2385   -5.0070    1.1061 C.2       1 <0>         0.5742
     13 O2          0.1534   -4.4575    2.1872 O.2       1 <0>        -0.5093
     14 N2          0.3433   -6.3490    1.0387 N.am      1 <0>        -0.7274
     15 C10         0.3545   -7.1456    2.2682 C.3       1 <0>         0.1347
     16 H1          0.8584   -6.6064    3.0704 H         1 <0>         0.1285
     17 C11        -1.0894   -7.5284    2.6870 C.3       1 <0>        -0.1591
     18 C12        -0.8466   -8.8274    3.4953 C.3       1 <0>        -0.0050
     19 N3          0.2474   -9.5183    2.7801 N.4       1 <0>        -0.3603
     20 C13         1.0250   -8.5141    2.0255 C.3       1 <0>        -0.0134
     21 C14         1.1234  -10.1913    3.7484 C.3       1 <0>        -0.0833
     22 C15         1.4603  -11.6618    3.4933 C.3       1 <0>        -0.1534
     23 C16         0.5025  -11.2815    4.6242 C.3       1 <0>        -0.1535
     24 H2          1.4237    1.8970   -0.6520 H         1 <0>         0.1035
     25 H3         -0.3559    1.8609   -0.6457 H         1 <0>         0.0871
     26 H4          0.5397    1.8638    0.8926 H         1 <0>         0.1031
     27 H5         -0.4883   -0.1918   -1.8560 H         1 <0>         0.4198
     28 H6          0.0430   -2.3226    0.8928 H         1 <0>         0.1660
     29 H7          0.4096   -5.9083   -1.4322 H         1 <0>         0.1351
     30 H8          0.3913   -4.5701   -3.4931 H         1 <0>         0.1520
     31 H9          0.4112   -6.7874    0.1761 H         1 <0>         0.4066
     32 H10        -1.5320   -6.7549    3.3146 H         1 <0>         0.1248
     33 H11        -1.7109   -7.7229    1.8129 H         1 <0>         0.1030
     34 H12        -0.5425   -8.5888    4.5145 H         1 <0>         0.1385
     35 H13        -1.7453   -9.4442    3.5011 H         1 <0>         0.1377
     36 H14         1.0054   -8.7533    0.9622 H         1 <0>         0.1356
     37 H15         2.0542   -8.4916    2.3838 H         1 <0>         0.1447
     38 H16         1.8977   -9.5674    4.1947 H         1 <0>         0.1768
     39 H17         1.0319  -12.1299    2.6070 H         1 <0>         0.1199
     40 H18         2.4565  -12.0055    3.7717 H         1 <0>         0.1340
     41 H19         0.8686  -11.3750    5.6466 H         1 <0>         0.1340
     42 H20        -0.5560  -11.4993    4.4819 H         1 <0>         0.1195
     43 H21        -0.1397  -10.1990    2.1438 H         1 <0>         0.4248
@<TRIPOS>BOND
     1    1    2 1
     2    1   24 1
     3    1   25 1
     4    1   26 1
     5    2    3 2
     6    2    4 am
     7    4    5 1
     8    4   27 1
     9    5   10 ar
    10    5    6 ar
    11    6    7 ar
    12    6   28 1
    13    7    8 ar
    14    7   12 1
    15    8    9 ar
    16    8   29 1
    17    9   10 ar
    18    9   30 1
    19   10   11 1
    20   12   13 2
    21   12   14 am
    22   14   15 1
    23   14   31 1
    24   15   16 1
    25   15   20 1
    26   15   17 1
    27   17   18 1
    28   17   32 1
    29   17   33 1
    30   18   19 1
    31   18   34 1
    32   18   35 1
    33   19   20 1
    34   19   21 1
    35   19   43 1
    36   20   36 1
    37   20   37 1
    38   21   23 1
    39   21   22 1
    40   21   38 1
    41   22   23 1
    42   22   39 1
    43   22   40 1
    44   23   41 1
    45   23   42 1
@<TRIPOS>MOLECULE
ZINC11894374
   47    47     0     0     0
SMALL
USER_CHARGES
(E)-3-[3-bromo-4-(2-diethylaminoethoxy)-5-ethoxy-phenyl]prop-2-enoic acid
@<TRIPOS>ATOM
      1 C1         -0.5396    5.3888   -0.8673 C.3       1 <0>        -0.1890
      2 C2         -0.1240    3.9881   -1.3213 C.3       1 <0>        -0.0130
      3 C3         -2.3968    3.3247   -1.8280 C.3       1 <0>        -0.0113
      4 C4         -3.6235    2.6964   -1.1637 C.3       1 <0>        -0.1899
      5 C5         -0.7536    1.6521   -1.2237 C.3       1 <0>         0.0036
      6 C6          0.1231    1.2241   -0.0452 C.3       1 <0>         0.0217
      7 O1         -0.6594    1.2109    1.1505 O.3       1 <0>        -0.3189
      8 C7         -0.0218    0.8721    2.3010 C.ar      1 <0>         0.0461
      9 C8          0.1196   -0.4712    2.6480 C.ar      1 <0>         0.1389
     10 C9          0.7722   -0.8187    3.8140 C.ar      1 <0>        -0.1843
     11 C10         1.2815    0.1809    4.6518 C.ar      1 <0>         0.0378
     12 C11         1.1310    1.5269    4.3001 C.ar      1 <0>        -0.1192
     13 C12         0.4826    1.8649    3.1314 C.ar      1 <0>        -0.0553
     14 Br1         0.2799    3.6842    2.6573 Br        1 <0>        -0.0460
     15 C13         1.9718   -0.1826    5.8972 C.2       1 <0>        -0.1446
     16 C14         2.4621    0.7834    6.7044 C.2       1 <0>        -0.0981
     17 C15         3.1281    0.4328    7.9059 C.2       1 <0>         0.4611
     18 O2          3.2580   -0.7379    8.2100 O.co2     1 <0>        -0.6269
     19 O3         -0.3811   -1.4395    1.8349 O.3       1 <0>        -0.3086
     20 C16        -0.2005   -2.7943    2.2520 C.3       1 <0>         0.0474
     21 C17        -0.8250   -3.7337    1.2183 C.3       1 <0>        -0.1496
     22 H1         -1.4449    5.6882   -1.3954 H         1 <0>         0.0815
     23 H2         -0.7307    5.3811    0.2058 H         1 <0>         0.0764
     24 H3          0.2606    6.0949   -1.0888 H         1 <0>         0.1073
     25 H4          0.7813    3.6887   -0.7932 H         1 <0>         0.1271
     26 H5          0.0671    3.9958   -2.3944 H         1 <0>         0.1333
     27 H6         -2.5350    4.4035   -1.8996 H         1 <0>         0.1296
     28 H7         -2.2709    2.9074   -2.8270 H         1 <0>         0.1304
     29 H8         -3.4713    1.6218   -1.0620 H         1 <0>         0.0816
     30 H9         -3.7689    3.1377   -0.1777 H         1 <0>         0.0814
     31 H10        -4.5045    2.8819   -1.7783 H         1 <0>         0.1042
     32 H11        -0.1781    1.5872   -2.1471 H         1 <0>         0.1462
     33 H12        -1.6207    0.9949   -1.2891 H         1 <0>         0.1402
     34 H13         0.5196    0.2259   -0.2310 H         1 <0>         0.1031
     35 H14         0.9481    1.9274    0.0683 H         1 <0>         0.0752
     36 H15         0.8857   -1.8589    4.0814 H         1 <0>         0.1471
     37 H16         1.5229    2.3006    4.9437 H         1 <0>         0.1504
     38 H17         2.0871   -1.2219    6.1672 H         1 <0>         0.1389
     39 H18         2.3468    1.8228    6.4344 H         1 <0>         0.1104
     40 H19         0.8646   -3.0082    2.3407 H         1 <0>         0.0687
     41 H20        -0.6830   -2.9445    3.2178 H         1 <0>         0.0701
     42 H21        -0.6872   -4.7671    1.5364 H         1 <0>         0.0834
     43 H22        -1.8901   -3.5197    1.1296 H         1 <0>         0.0661
     44 H23        -0.3425   -3.5834    0.2525 H         1 <0>         0.0639
     45 N1         -1.2095    3.0395   -0.9951 N.4       1 <0>        -0.4014
     46 H24        -1.4619    3.1488   -0.0059 H         1 <0>         0.4336
     47 O4          3.6178    1.3976    8.7121 O.co2     1 <0>        -0.7509
@<TRIPOS>BOND
     1    1    2 1
     2    1   22 1
     3    1   23 1
     4    1   24 1
     5    2   25 1
     6    2   26 1
     7    2   45 1
     8    3    4 1
     9    3   27 1
    10    3   28 1
    11    3   45 1
    12    4   29 1
    13    4   30 1
    14    4   31 1
    15    5    6 1
    16    5   32 1
    17    5   33 1
    18    5   45 1
    19    6    7 1
    20    6   34 1
    21    6   35 1
    22    7    8 1
    23    8   13 ar
    24    8    9 ar
    25    9   10 ar
    26    9   19 1
    27   10   11 ar
    28   10   36 1
    29   11   12 ar
    30   11   15 1
    31   12   13 ar
    32   12   37 1
    33   13   14 1
    34   15   16 2
    35   15   38 1
    36   16   17 1
    37   16   39 1
    38   17   18 2
    39   17   47 1
    40   19   20 1
    41   20   21 1
    42   20   40 1
    43   20   41 1
    44   21   42 1
    45   21   43 1
    46   21   44 1
    47   45   46 1
@<TRIPOS>MOLECULE
ZINC33678432
   47    48     0     0     0
SMALL
USER_CHARGES
N-[2-oxo-2-(thiazol-2-ylamino)ethyl]-N-pentyl-4-(trifluoromethyl)benzamide
@<TRIPOS>ATOM
      1 C1          8.6379    2.6044    4.0286 C.3       1 <0>        -0.1557
      2 C2          8.1189    2.0750    2.6902 C.3       1 <0>        -0.1237
      3 C3          6.6071    2.2948    2.6066 C.3       1 <0>        -0.1186
      4 C4          6.0880    1.7654    1.2682 C.3       1 <0>        -0.1355
      5 C5          4.5762    1.9852    1.1846 C.3       1 <0>         0.1193
      6 N1          4.0792    1.4783   -0.0969 N.am      1 <0>        -0.5857
      7 C6          3.5385    0.1198   -0.1872 C.3       1 <0>         0.0648
      8 C7          2.1752    0.0780    0.4538 C.2       1 <0>         0.4820
      9 O1          1.7019    1.0841    0.9384 O.2       1 <0>        -0.4492
     10 N2          1.4820   -1.0772    0.4886 N.am      1 <0>        -0.6349
     11 C8          0.2222   -1.1144    1.0748 C.2       1 <0>         0.3056
     12 N3         -0.4519   -0.1394    1.6528 N.2       1 <0>        -0.5160
     13 C9         -1.6515   -0.3453    2.1601 C.2       1 <0>         0.0568
     14 C10        -2.1788   -1.5918    2.0864 C.2       1 <0>        -0.2273
     15 S1         -0.8649   -2.4584    1.2405 S.3       1 <0>         0.0535
     16 C11         4.1194    2.2618   -1.1928 C.2       1 <0>         0.5627
     17 O2          4.6215    3.3671   -1.1316 O.2       1 <0>        -0.5090
     18 C12         3.5527    1.7769   -2.4694 C.ar      1 <0>        -0.0986
     19 C13         2.5118    0.8471   -2.4659 C.ar      1 <0>        -0.1123
     20 C14         1.9847    0.4019   -3.6606 C.ar      1 <0>        -0.0724
     21 C15         2.4924    0.8676   -4.8605 C.ar      1 <0>        -0.1590
     22 C16         3.5273    1.7858   -4.8710 C.ar      1 <0>        -0.0696
     23 C17         4.0603    2.2427   -3.6833 C.ar      1 <0>        -0.0599
     24 C18         1.9151    0.3730   -6.1617 C.3       1 <0>         0.5073
     25 F1          2.6117   -0.7668   -6.5775 F         1 <0>        -0.1727
     26 F2          0.5648    0.0545   -5.9817 F         1 <0>        -0.1738
     27 F3          2.0330    1.3721   -7.1339 F         1 <0>        -0.1728
     28 H1          9.7248    2.4464    4.0887 H         1 <0>         0.0544
     29 H2          8.1433    2.0679    4.8517 H         1 <0>         0.0539
     30 H3          8.4187    3.6795    4.1075 H         1 <0>         0.0549
     31 H4          8.6135    2.6115    1.8671 H         1 <0>         0.0621
     32 H5          8.3381    1.0000    2.6113 H         1 <0>         0.0604
     33 H6          6.1125    1.7584    3.4298 H         1 <0>         0.0630
     34 H7          6.3879    3.3699    2.6856 H         1 <0>         0.0663
     35 H8          6.5826    2.3018    0.4450 H         1 <0>         0.0716
     36 H9          6.3072    0.6903    1.1892 H         1 <0>         0.0633
     37 H10         4.0816    1.4488    2.0078 H         1 <0>         0.0820
     38 H11         4.3570    3.0603    1.2636 H         1 <0>         0.0892
     39 H12         3.4557   -0.1723   -1.2445 H         1 <0>         0.1397
     40 H13         4.2104   -0.5777    0.3343 H         1 <0>         0.1195
     41 H14         1.9132   -1.9907    0.0531 H         1 <0>         0.4560
     42 H15        -2.1991    0.4595    2.6280 H         1 <0>         0.1732
     43 H16        -3.1301   -1.9597    2.4413 H         1 <0>         0.2005
     44 H17         2.1177    0.4794   -1.5300 H         1 <0>         0.1411
     45 H18         1.1767   -0.3147   -3.6593 H         1 <0>         0.1448
     46 H19         3.9191    2.1454   -5.8110 H         1 <0>         0.1482
     47 H20         4.8681    2.9594   -3.6929 H         1 <0>         0.1507
@<TRIPOS>BOND
     1    1    2 1
     2    1   28 1
     3    1   29 1
     4    1   30 1
     5    2    3 1
     6    2   31 1
     7    2   32 1
     8    3    4 1
     9    3   33 1
    10    3   34 1
    11    4    5 1
    12    4   35 1
    13    4   36 1
    14    5    6 1
    15    5   37 1
    16    5   38 1
    17    6    7 1
    18    6   16 am
    19    7    8 1
    20    7   39 1
    21    7   40 1
    22    8    9 2
    23    8   10 am
    24   10   11 1
    25   10   41 1
    26   11   15 1
    27   11   12 2
    28   12   13 1
    29   13   14 2
    30   13   42 1
    31   14   15 1
    32   14   43 1
    33   16   17 2
    34   16   18 1
    35   18   23 ar
    36   18   19 ar
    37   19   20 ar
    38   19   44 1
    39   20   21 ar
    40   20   45 1
    41   21   22 ar
    42   21   24 1
    43   22   23 ar
    44   22   46 1
    45   23   47 1
    46   24   25 1
    47   24   26 1
    48   24   27 1
@<TRIPOS>MOLECULE
ZINC46735795
   52    54     0     0     0
SMALL
USER_CHARGES

@<TRIPOS>ATOM
      1 C1         -0.0167    1.3792    0.0096 C.ar      1 <0>        -0.0881
      2 C2          1.1684    2.0937    0.0021 C.ar      1 <0>        -0.1120
      3 C3          2.3774    1.4300   -0.0134 C.ar      1 <0>        -0.0701
      4 C4          2.4037    0.0338   -0.0212 C.ar      1 <0>        -0.0119
      5 C5          1.2043   -0.6808   -0.0131 C.ar      1 <0>        -0.0305
      6 C6          0.0021   -0.0041    0.0020 C.ar      1 <0>        -0.0993
      7 C7          1.2228   -2.1876   -0.0219 C.3       1 <0>        -0.0587
      8 S1          1.2475   -2.8020    1.6847 S.3       1 <0>        -0.2150
      9 C8          1.2679   -4.6066    1.5012 C.3       1 <0>        -0.1115
     10 C9          1.2899   -5.2596    2.8847 C.3       1 <0>         0.1382
     11 N1          1.3064   -6.7170    2.7365 N.am      1 <0>        -0.7279
     12 C10         1.3271   -7.5053    3.8295 C.2       1 <0>         0.5661
     13 O1          1.3321   -7.0069    4.9385 O.2       1 <0>        -0.5344
     14 C11         1.3437   -8.9737    3.6802 C.ar      1 <0>        -0.1797
     15 C12         1.3438   -9.5484    2.4065 C.ar      1 <0>        -0.0442
     16 C13         1.3598  -10.9187    2.2714 C.ar      1 <0>        -0.1591
     17 C14         1.3753  -11.7300    3.3999 C.ar      1 <0>         0.1623
     18 C15         1.3753  -11.1622    4.6687 C.ar      1 <0>        -0.2195
     19 C16         1.3652   -9.7927    4.8121 C.ar      1 <0>        -0.0135
     20 O2          1.3901  -13.0800    3.2627 O.3       1 <0>        -0.3009
     21 C17         1.4056  -13.8541    4.4637 C.3       1 <0>         0.0582
     22 C18         1.4209  -15.3428    4.1109 C.3       1 <0>         0.0822
     23 H1          2.2501  -15.5632    3.4387 H         1 <0>         0.0842
     24 C19         1.5293  -16.1994    5.3975 C.3       1 <0>        -0.1495
     25 C20         0.8947  -17.5333    4.9179 C.3       1 <0>        -0.1551
     26 C21        -0.1889  -17.0449    3.9327 C.3       1 <0>         0.0469
     27 O3          0.1747  -15.7249    3.5073 O.3       1 <0>        -0.3719
     28 C22         3.6553   -0.6619   -0.0379 C.1       1 <0>         0.2487
     29 N2          4.6481   -1.2138   -0.0511 N.1       1 <0>        -0.4039
     30 H2         -0.9605    1.9039    0.0260 H         1 <0>         0.1354
     31 H3          1.1466    3.1734    0.0082 H         1 <0>         0.1372
     32 H4          3.3016    1.9888   -0.0200 H         1 <0>         0.1366
     33 H5         -0.9265   -0.5555    0.0083 H         1 <0>         0.1373
     34 H6          0.3322   -2.5589   -0.5289 H         1 <0>         0.1031
     35 H7          2.1119   -2.5370   -0.5468 H         1 <0>         0.0909
     36 H8          0.3764   -4.9271    0.9623 H         1 <0>         0.0919
     37 H9          2.1561   -4.9051    0.9443 H         1 <0>         0.0894
     38 H10         2.1815   -4.9391    3.4236 H         1 <0>         0.0801
     39 H11         0.4017   -4.9611    3.4415 H         1 <0>         0.0815
     40 H12         1.3024   -7.1147    1.8517 H         1 <0>         0.4002
     41 H13         1.3310   -8.9187    1.5292 H         1 <0>         0.1318
     42 H14         1.3598  -11.3636    1.2873 H         1 <0>         0.1392
     43 H15         1.3874  -11.7960    5.5431 H         1 <0>         0.1355
     44 H16         1.3693   -9.3523    5.7982 H         1 <0>         0.1403
     45 H17         2.2960  -13.6088    5.0426 H         1 <0>         0.0802
     46 H18         0.5162  -13.6293    5.0524 H         1 <0>         0.0744
     47 H19         2.5702  -16.3417    5.6881 H         1 <0>         0.0904
     48 H20         0.9526  -15.7603    6.2115 H         1 <0>         0.0837
     49 H21         1.6324  -18.1524    4.4075 H         1 <0>         0.0804
     50 H22         0.4458  -18.0715    5.7528 H         1 <0>         0.0868
     51 H23        -0.2322  -17.7109    3.0709 H         1 <0>         0.0717
     52 H24        -1.1579  -17.0201    4.4313 H         1 <0>         0.0719
@<TRIPOS>BOND
     1    1    6 ar
     2    1    2 ar
     3    1   30 1
     4    2    3 ar
     5    2   31 1
     6    3    4 ar
     7    3   32 1
     8    4    5 ar
     9    4   28 1
    10    5    6 ar
    11    5    7 1
    12    6   33 1
    13    7    8 1
    14    7   34 1
    15    7   35 1
    16    8    9 1
    17    9   10 1
    18    9   36 1
    19    9   37 1
    20   10   11 1
    21   10   38 1
    22   10   39 1
    23   11   12 am
    24   11   40 1
    25   12   13 2
    26   12   14 1
    27   14   19 ar
    28   14   15 ar
    29   15   16 ar
    30   15   41 1
    31   16   17 ar
    32   16   42 1
    33   17   18 ar
    34   17   20 1
    35   18   19 ar
    36   18   43 1
    37   19   44 1
    38   20   21 1
    39   21   22 1
    40   21   45 1
    41   21   46 1
    42   22   23 1
    43   22   27 1
    44   22   24 1
    45   24   25 1
    46   24   47 1
    47   24   48 1
    48   25   26 1
    49   25   49 1
    50   25   50 1
    51   26   27 1
    52   26   51 1
    53   26   52 1
    54   28   29 3
@<TRIPOS>MOLECULE
ZINC11769409
   54    56     0     0     0
SMALL
USER_CHARGES

@<TRIPOS>ATOM
      1 C1         -0.0187    1.5258    0.0104 C.3       1 <0>        -0.1508
      2 C2          0.0021   -0.0041    0.0020 C.3       1 <0>         0.0815
      3 C3          0.7421   -0.5109    1.2415 C.3       1 <0>        -0.1770
      4 O1         -1.3386   -0.4987    0.0122 O.3       1 <0>        -0.3810
      5 C4         -1.4988   -1.7570   -0.6458 C.3       1 <0>         0.0687
      6 C5         -2.9653   -2.1871   -0.5737 C.3       1 <0>        -0.1348
      7 C6         -3.1369   -3.5344   -1.2782 C.3       1 <0>         0.0925
      8 N1         -4.5412   -3.9462   -1.2092 N.am      1 <0>        -0.5253
      9 C7         -4.9736   -4.6869   -0.1623 C.2       1 <0>         0.5545
     10 O2         -4.2164   -5.0214    0.7303 O.2       1 <0>        -0.5018
     11 C8         -6.3913   -5.0718   -0.1433 C.ar      1 <0>        -0.2027
     12 C9         -6.9342   -5.8333    0.8907 C.ar      1 <0>        -0.0376
     13 C10        -8.2609   -6.1636    0.8593 C.ar      1 <0>        -0.1404
     14 C11        -9.0710   -5.7488   -0.1900 C.ar      1 <0>        -0.0684
     15 C12        -8.5652   -5.0018   -1.2160 C.ar      1 <0>        -0.1141
     16 C13        -7.2126   -4.6478   -1.2128 C.ar      1 <0>         0.1691
     17 N2         -6.6724   -3.9116   -2.2047 N.2       1 <0>        -0.5324
     18 C14        -5.4061   -3.5753   -2.1989 C.2       1 <0>         0.3696
     19 S1         -4.7886   -2.6053   -3.5340 S.3       1 <0>         0.0152
     20 C15        -6.2373   -2.3452   -4.5942 C.3       1 <0>        -0.1369
     21 C16        -5.8364   -1.5053   -5.8086 C.3       1 <0>         0.1664
     22 C17        -7.0621   -1.1856   -6.6251 C.ar      1 <0>        -0.1162
     23 C18        -7.5836   -2.1313   -7.4880 C.ar      1 <0>        -0.1079
     24 C19        -8.7079   -1.8381   -8.2370 C.ar      1 <0>        -0.1157
     25 C20        -9.3109   -0.5994   -8.1226 C.ar      1 <0>        -0.1138
     26 C21        -8.7898    0.3459   -7.2590 C.ar      1 <0>        -0.1163
     27 C22        -7.6681    0.0512   -6.5069 C.ar      1 <0>        -0.1047
     28 O3         -4.9083   -2.2391   -6.6099 O.3       1 <0>        -0.5443
     29 H1          1.0039    1.9031    0.0027 H         1 <0>         0.0702
     30 H2         -0.5459    1.8868   -0.8726 H         1 <0>         0.0619
     31 H3         -0.5289    1.8773    0.9072 H         1 <0>         0.0637
     32 H4          0.5123   -0.3556   -0.8948 H         1 <0>         0.0611
     33 H5          0.7568   -1.6008    1.2356 H         1 <0>         0.0562
     34 H6          1.7647   -0.1336    1.2338 H         1 <0>         0.0663
     35 H7          0.2319   -0.1594    2.1383 H         1 <0>         0.0641
     36 H8         -1.1989   -1.6621   -1.6895 H         1 <0>         0.0551
     37 H9         -0.8762   -2.5053   -0.1555 H         1 <0>         0.0529
     38 H10        -3.2653   -2.2820    0.4699 H         1 <0>         0.0800
     39 H11        -3.5880   -1.4388   -1.0641 H         1 <0>         0.0828
     40 H12        -2.8370   -3.4395   -2.3219 H         1 <0>         0.1023
     41 H13        -2.5143   -4.2827   -0.7879 H         1 <0>         0.1080
     42 H14        -6.3114   -6.1603    1.7103 H         1 <0>         0.1379
     43 H15        -8.6834   -6.7537    1.6591 H         1 <0>         0.1339
     44 H16       -10.1161   -6.0212   -0.1950 H         1 <0>         0.1347
     45 H17        -9.2069   -4.6860   -2.0252 H         1 <0>         0.1380
     46 H18        -6.6199   -3.3092   -4.9296 H         1 <0>         0.1042
     47 H19        -7.0109   -1.8234   -4.0309 H         1 <0>         0.1116
     48 H20        -5.3722   -0.5783   -5.4719 H         1 <0>         0.1190
     49 H21        -7.1125   -3.0990   -7.5773 H         1 <0>         0.1211
     50 H22        -9.1150   -2.5766   -8.9117 H         1 <0>         0.1253
     51 H23       -10.1888   -0.3701   -8.7083 H         1 <0>         0.1245
     52 H24        -9.2607    1.3137   -7.1700 H         1 <0>         0.1259
     53 H25        -7.2632    0.7884   -5.8294 H         1 <0>         0.1259
     54 H26        -5.2547   -3.0775   -6.9447 H         1 <0>         0.3779
@<TRIPOS>BOND
     1    1    2 1
     2    1   29 1
     3    1   30 1
     4    1   31 1
     5    2    3 1
     6    2    4 1
     7    2   32 1
     8    3   33 1
     9    3   34 1
    10    3   35 1
    11    4    5 1
    12    5    6 1
    13    5   36 1
    14    5   37 1
    15    6    7 1
    16    6   38 1
    17    6   39 1
    18    7    8 1
    19    7   40 1
    20    7   41 1
    21    8   18 1
    22    8    9 am
    23    9   10 2
    24    9   11 1
    25   11   16 ar
    26   11   12 ar
    27   12   13 ar
    28   12   42 1
    29   13   14 ar
    30   13   43 1
    31   14   15 ar
    32   14   44 1
    33   15   16 ar
    34   15   45 1
    35   16   17 1
    36   17   18 2
    37   18   19 1
    38   19   20 1
    39   20   21 1
    40   20   46 1
    41   20   47 1
    42   21   22 1
    43   21   28 1
    44   21   48 1
    45   22   27 ar
    46   22   23 ar
    47   23   24 ar
    48   23   49 1
    49   24   25 ar
    50   24   50 1
    51   25   26 ar
    52   25   51 1
    53   26   27 ar
    54   26   52 1
    55   27   53 1
    56   28   54 1
@<TRIPOS>MOLECULE
ZINC67479712
   53    54     0     0     0
SMALL
USER_CHARGES

@<TRIPOS>ATOM
      1 C1         -0.0187    1.5258    0.0104 C.3       1 <0>        -0.1472
      2 C2          0.0021   -0.0041    0.0020 C.3       1 <0>        -0.0369
      3 C3          0.7309   -0.5033    1.2229 C.2       1 <0>         0.0617
      4 N1          0.2398   -0.7931    2.4019 N.2       1 <0>        -0.5186
      5 C4          1.0120   -1.2232    3.3798 C.2       1 <0>         0.0634
      6 C5          2.3359   -1.3511    3.1075 C.2       1 <0>        -0.2245
      7 S1          2.3724   -0.8306    1.3998 S.3       1 <0>         0.0929
      8 C6          3.4616   -1.8100    3.9981 C.3       1 <0>         0.2257
      9 N2          3.6170   -3.2619    3.8799 N.am      1 <0>        -0.6289
     10 C7          4.5158   -3.8225    2.8679 C.3       1 <0>         0.0754
     11 C8          2.9329   -4.0820    4.7021 C.2       1 <0>         0.7100
     12 O1          2.1869   -3.6168    5.5419 O.2       1 <0>        -0.5807
     13 N3          3.0758   -5.4178    4.5933 N.am      1 <0>        -0.7390
     14 C9          2.3322   -6.3092    5.4870 C.3       1 <0>         0.2022
     15 H1          1.3532   -5.8787    5.6974 H         1 <0>         0.0983
     16 C10         3.1059   -6.4804    6.7959 C.3       1 <0>        -0.1585
     17 C11         2.1590   -7.6525    4.8265 C.ar      1 <0>        -0.0954
     18 C12         3.2010   -8.2059    4.1049 C.ar      1 <0>        -0.0948
     19 C13         3.0458   -9.4364    3.4979 C.ar      1 <0>        -0.0934
     20 C14         1.8407  -10.1191    3.6131 C.ar      1 <0>        -0.0800
     21 C15         0.7960   -9.5601    4.3393 C.ar      1 <0>        -0.1267
     22 C16         0.9603   -8.3315    4.9480 C.ar      1 <0>        -0.0841
     23 S2          1.6378  -11.6892    2.8398 S.3       1 <0>        -0.0992
     24 C17        -0.0590  -12.1709    3.2632 C.3       1 <0>        -0.1137
     25 C18        -0.3709  -13.5357    2.6458 C.3       1 <0>         0.0782
     26 O2         -1.7076  -13.9151    2.9794 O.3       1 <0>        -0.3887
     27 C19        -2.1018  -15.1820    2.4486 C.3       1 <0>         0.0317
     28 H2          1.0039    1.9031    0.0027 H         1 <0>         0.0584
     29 H3         -0.5459    1.8868   -0.8726 H         1 <0>         0.0712
     30 H4         -0.5289    1.8773    0.9072 H         1 <0>         0.0625
     31 H5         -1.0205   -0.3814    0.0098 H         1 <0>         0.0971
     32 H6          0.5123   -0.3556   -0.8948 H         1 <0>         0.0898
     33 H7          0.6099   -1.4627    4.3531 H         1 <0>         0.1738
     34 H8          4.3870   -1.3198    3.6957 H         1 <0>         0.0957
     35 H9          3.2349   -1.5519    5.0325 H         1 <0>         0.1127
     36 H10         5.5145   -3.9334    3.2904 H         1 <0>         0.0629
     37 H11         4.1446   -4.7975    2.5522 H         1 <0>         0.0667
     38 H12         4.5572   -3.1537    2.0082 H         1 <0>         0.0753
     39 H13         3.6709   -5.7889    3.9233 H         1 <0>         0.3955
     40 H14         3.2312   -5.5088    7.2737 H         1 <0>         0.0676
     41 H15         2.5527   -7.1436    7.4608 H         1 <0>         0.0686
     42 H16         4.0850   -6.9108    6.5856 H         1 <0>         0.0584
     43 H17         4.1372   -7.6749    4.0158 H         1 <0>         0.1257
     44 H18         3.8597   -9.8677    2.9340 H         1 <0>         0.1311
     45 H19        -0.1419  -10.0878    4.4310 H         1 <0>         0.1272
     46 H20         0.1502   -7.8984    5.5159 H         1 <0>         0.1306
     47 H21        -0.1601  -12.2308    4.3469 H         1 <0>         0.0982
     48 H22        -0.7555  -11.4283    2.8738 H         1 <0>         0.0978
     49 H23        -0.2699  -13.4758    1.5622 H         1 <0>         0.0617
     50 H24         0.3255  -14.2783    3.0352 H         1 <0>         0.0619
     51 H25        -3.1281  -15.3972    2.7462 H         1 <0>         0.0909
     52 H26        -2.0367  -15.1563    1.3608 H         1 <0>         0.0448
     53 H27        -1.4413  -15.9588    2.8339 H         1 <0>         0.0449
@<TRIPOS>BOND
     1    1    2 1
     2    1   28 1
     3    1   29 1
     4    1   30 1
     5    2    3 1
     6    2   31 1
     7    2   32 1
     8    3    7 1
     9    3    4 2
    10    4    5 1
    11    5    6 2
    12    5   33 1
    13    6    7 1
    14    6    8 1
    15    8    9 1
    16    8   34 1
    17    8   35 1
    18    9   10 1
    19    9   11 am
    20   10   36 1
    21   10   37 1
    22   10   38 1
    23   11   12 2
    24   11   13 am
    25   13   14 1
    26   13   39 1
    27   14   15 1
    28   14   16 1
    29   14   17 1
    30   16   40 1
    31   16   41 1
    32   16   42 1
    33   17   22 ar
    34   17   18 ar
    35   18   19 ar
    36   18   43 1
    37   19   20 ar
    38   19   44 1
    39   20   21 ar
    40   20   23 1
    41   21   22 ar
    42   21   45 1
    43   22   46 1
    44   23   24 1
    45   24   25 1
    46   24   47 1
    47   24   48 1
    48   25   26 1
    49   25   49 1
    50   25   50 1
    51   26   27 1
    52   27   51 1
    53   27   52 1
    54   27   53 1
@<TRIPOS>MOLECULE
ZINC19783567
   34    34     0     0     0
SMALL
USER_CHARGES
1-[(2S)-2-(2-chloroethyl)-1-piperidyl]-2-methyl-propan-1-one
@<TRIPOS>ATOM
      1 C1          0.7496   -0.7555    0.7968 C.3       1 <0>        -0.1488
      2 C2         -0.7067   -0.6900    1.2613 C.3       1 <0>        -0.1166
      3 C3         -0.9297   -1.7040    2.3851 C.3       1 <0>        -0.1350
      4 C4         -1.0104    0.6964    1.7681 C.2       1 <0>         0.5163
      5 O1         -1.2099    0.8797    2.9503 O.2       1 <0>        -0.5263
      6 N1         -1.0604    1.7325    0.9077 N.am      1 <0>        -0.6109
      7 C5         -0.9071    1.5138   -0.5371 C.3       1 <0>         0.1023
      8 C6         -2.0985    2.1458   -1.2636 C.3       1 <0>        -0.1382
      9 C7         -2.2150    3.6173   -0.8597 C.3       1 <0>        -0.1217
     10 C8         -2.4606    3.7164    0.6476 C.3       1 <0>        -0.1368
     11 C9         -1.2733    3.1022    1.3958 C.3       1 <0>         0.1479
     12 H1         -0.3507    3.6698    1.2042 H         1 <0>         0.0743
     13 C10        -1.5712    3.0749    2.8963 C.3       1 <0>        -0.1215
     14 C11        -1.7209    4.5073    3.4127 C.3       1 <0>        -0.0438
     15 Cl1        -2.2049    4.4726    5.1492 Cl        1 <0>        -0.1826
     16 H2          0.9099   -0.0265   -0.0112 H         1 <0>         0.0620
     17 H3          0.9713   -1.7674    0.4269 H         1 <0>         0.0700
     18 H4          1.4146   -0.5197    1.6407 H         1 <0>         0.0626
     19 H5         -1.3783   -0.9117    0.4188 H         1 <0>         0.0937
     20 H6         -1.9767   -1.6569    2.7190 H         1 <0>         0.0603
     21 H7         -0.2647   -1.4682    3.2290 H         1 <0>         0.0656
     22 H8         -0.7080   -2.7159    2.0152 H         1 <0>         0.0624
     23 H9          0.0281    1.9797   -0.8812 H         1 <0>         0.0717
     24 H10        -0.8762    0.4337   -0.7432 H         1 <0>         0.0914
     25 H11        -1.9455    2.0734   -2.3505 H         1 <0>         0.0788
     26 H12        -3.0208    1.6140   -0.9869 H         1 <0>         0.0686
     27 H13        -1.2824    4.1422   -1.1139 H         1 <0>         0.0660
     28 H14        -3.0548    4.0801   -1.3987 H         1 <0>         0.0691
     29 H15        -2.5685    4.7733    0.9328 H         1 <0>         0.0773
     30 H16        -3.3804    3.1712    0.9059 H         1 <0>         0.0713
     31 H17        -2.5049    2.5214    3.0747 H         1 <0>         0.0853
     32 H18        -0.7441    2.5789    3.4254 H         1 <0>         0.1061
     33 H19        -0.7619    5.0362    3.3098 H         1 <0>         0.0892
     34 H20        -2.4922    5.0294    2.8274 H         1 <0>         0.0902
@<TRIPOS>BOND
     1    1    2 1
     2    1   16 1
     3    1   17 1
     4    1   18 1
     5    2    3 1
     6    2    4 1
     7    2   19 1
     8    3   20 1
     9    3   21 1
    10    3   22 1
    11    4    5 2
    12    4    6 am
    13    6   11 1
    14    6    7 1
    15    7    8 1
    16    7   23 1
    17    7   24 1
    18    8    9 1
    19    8   25 1
    20    8   26 1
    21    9   10 1
    22    9   27 1
    23    9   28 1
    24   10   11 1
    25   10   29 1
    26   10   30 1
    27   11   12 1
    28   11   13 1
    29   13   14 1
    30   13   31 1
    31   13   32 1
    32   14   15 1
    33   14   33 1
    34   14   34 1
@<TRIPOS>MOLECULE
ZINC39105722
   35    36     0     0     0
SMALL
USER_CHARGES

@<TRIPOS>ATOM
      1 C1         -3.9728    0.7930   -1.6124 C.3       1 <0>        -0.2071
      2 C2         -3.3152   -0.5548   -1.4641 C.2       1 <0>         0.3554
      3 O1         -3.6314   -1.4643   -2.1930 O.2       1 <0>        -0.4523
      4 C3         -2.2632   -0.7677   -0.4064 C.3       1 <0>        -0.1874
      5 C4         -1.7618   -2.2119   -0.4691 C.3       1 <0>        -0.1353
      6 H1         -1.4789   -2.4704   -1.4896 H         1 <0>         0.1081
      7 C5         -2.8579   -3.1901    0.0544 C.3       1 <0>        -0.0757
      8 H2         -3.8808   -2.9734   -0.2536 H         1 <0>         0.1104
      9 C6         -2.3170   -4.6066   -0.3115 C.3       1 <0>        -0.1241
     10 C7         -1.0978   -4.8064    0.6180 C.3       1 <0>        -0.1098
     11 C8         -1.0268   -3.4957    1.4596 C.3       1 <0>        -0.1173
     12 C9         -0.5816   -2.4039    0.4721 C.2       1 <0>         0.3766
     13 O2          0.4845   -1.8380    0.4348 O.2       1 <0>        -0.4352
     14 C10        -2.5665   -3.1356    1.5963 C.3       1 <0>        -0.0614
     15 C11        -2.8054   -1.7408    2.1780 C.3       1 <0>        -0.1492
     16 C12        -3.3355   -4.2116    2.3655 C.3       1 <0>        -0.1365
     17 C13        -0.2222   -3.5796    2.7583 C.3       1 <0>        -0.1205
     18 H3         -4.7009    0.7549   -2.4226 H         1 <0>         0.0832
     19 H4         -4.4774    1.0553   -0.6825 H         1 <0>         0.0928
     20 H5         -3.2157    1.5436   -1.8392 H         1 <0>         0.0929
     21 H6         -1.4304   -0.0861   -0.5798 H         1 <0>         0.1037
     22 H7         -2.6921   -0.5745    0.5768 H         1 <0>         0.1248
     23 H8         -3.0741   -5.3656   -0.1146 H         1 <0>         0.0748
     24 H9         -2.0082   -4.6378   -1.3564 H         1 <0>         0.0708
     25 H10        -1.2523   -5.6676    1.2679 H         1 <0>         0.0817
     26 H11        -0.1881   -4.9307    0.0305 H         1 <0>         0.0674
     27 H12        -3.7435   -1.3419    1.7920 H         1 <0>         0.0668
     28 H13        -2.8576   -1.8044    3.2649 H         1 <0>         0.0654
     29 H14        -1.9854   -1.0823    1.8916 H         1 <0>         0.0612
     30 H15        -3.0649   -5.1955    1.9823 H         1 <0>         0.0645
     31 H16        -3.0829   -4.1520    3.4242 H         1 <0>         0.0590
     32 H17        -4.4065   -4.0540    2.2381 H         1 <0>         0.0603
     33 H18         0.8128   -3.8330    2.5288 H         1 <0>         0.0635
     34 H19        -0.2559   -2.6175    3.2694 H         1 <0>         0.0614
     35 H20        -0.6502   -4.3482    3.4019 H         1 <0>         0.0669
@<TRIPOS>BOND
     1    1    2 1
     2    1   18 1
     3    1   19 1
     4    1   20 1
     5    2    3 2
     6    2    4 1
     7    4    5 1
     8    4   21 1
     9    4   22 1
    10    5    6 1
    11    5   12 1
    12    5    7 1
    13    7    8 1
    14    7   14 1
    15    7    9 1
    16    9   10 1
    17    9   23 1
    18    9   24 1
    19   10   11 1
    20   10   25 1
    21   10   26 1
    22   11   12 1
    23   11   14 1
    24   11   17 1
    25   12   13 2
    26   14   15 1
    27   14   16 1
    28   15   27 1
    29   15   28 1
    30   15   29 1
    31   16   30 1
    32   16   31 1
    33   16   32 1
    34   17   33 1
    35   17   34 1
    36   17   35 1
@<TRIPOS>MOLECULE
ZINC43640607
   31    31     0     0     0
SMALL
USER_CHARGES

@<TRIPOS>ATOM
      1 C1         -0.0185    1.5136    0.0104 C.3       1 <0>        -0.1239
      2 C2          1.3617    2.1452    0.0006 C.3       1 <0>        -0.1131
      3 C3          2.0766    1.8654   -1.3236 C.3       1 <0>        -0.1392
      4 C4          2.7523    0.5136   -1.2284 C.2       1 <0>         0.5152
      5 O1          3.9610    0.4459   -1.1541 O.2       1 <0>        -0.5463
      6 N1          2.0226   -0.6027   -1.2254 N.am      1 <0>        -0.6093
      7 C5          0.5554   -0.5346   -1.3220 C.3       1 <0>         0.1089
      8 C6          0.0021   -0.0041    0.0020 C.3       1 <0>        -0.1416
      9 C7          2.6856   -1.9053   -1.1258 C.3       1 <0>         0.1124
     10 C8          2.8252   -2.2953    0.3470 C.3       1 <0>        -0.1335
     11 C9          3.5177   -3.6556    0.4510 C.3       1 <0>        -0.1278
     12 C10         3.6572   -4.0456    1.9239 C.3       1 <0>        -0.0316
     13 Cl1         4.4732   -5.6487    2.0464 Cl        1 <0>        -0.1860
     14 H1         -0.5486    1.8494    0.9016 H         1 <0>         0.0668
     15 H2         -0.5655    1.8589   -0.8669 H         1 <0>         0.0650
     16 H3          1.2643    3.2224    0.1352 H         1 <0>         0.0771
     17 H4          1.9506    1.7336    0.8203 H         1 <0>         0.0651
     18 H5          1.3508    1.8556   -2.1367 H         1 <0>         0.0895
     19 H6          2.8248    2.6368   -1.5059 H         1 <0>         0.0975
     20 H7          0.2730    0.1375   -2.1323 H         1 <0>         0.0785
     21 H8          0.1548   -1.5302   -1.5130 H         1 <0>         0.0868
     22 H9          0.6290   -0.3585    0.8202 H         1 <0>         0.0701
     23 H10        -1.0126   -0.3770    0.1416 H         1 <0>         0.0776
     24 H11         2.0910   -2.6564   -1.6458 H         1 <0>         0.0790
     25 H12         3.6742   -1.8455   -1.5811 H         1 <0>         0.0865
     26 H13         3.4198   -1.5442    0.8670 H         1 <0>         0.0698
     27 H14         1.8366   -2.3550    0.8023 H         1 <0>         0.0671
     28 H15         2.9230   -4.4067   -0.0689 H         1 <0>         0.0767
     29 H16         4.5062   -3.5958   -0.0042 H         1 <0>         0.0784
     30 H17         4.2519   -3.2945    2.4438 H         1 <0>         0.0924
     31 H18         2.6686   -4.1054    2.3792 H         1 <0>         0.0918
@<TRIPOS>BOND
     1    1    8 1
     2    1    2 1
     3    1   14 1
     4    1   15 1
     5    2    3 1
     6    2   16 1
     7    2   17 1
     8    3    4 1
     9    3   18 1
    10    3   19 1
    11    4    5 2
    12    4    6 am
    13    6    7 1
    14    6    9 1
    15    7    8 1
    16    7   20 1
    17    7   21 1
    18    8   22 1
    19    8   23 1
    20    9   10 1
    21    9   24 1
    22    9   25 1
    23   10   11 1
    24   10   26 1
    25   10   27 1
    26   11   12 1
    27   11   28 1
    28   11   29 1
    29   12   13 1
    30   12   30 1
    31   12   31 1
@<TRIPOS>MOLECULE
ZINC53780111
   37    38     0     0     0
SMALL
USER_CHARGES

@<TRIPOS>ATOM
      1 C1          0.0599    1.3015   -0.5447 C.3       1 <0>        -0.1479
      2 C2          0.0765   -0.2126   -0.3255 C.3       1 <0>        -0.0973
      3 H1         -0.9461   -0.5899   -0.3177 H         1 <0>         0.0669
      4 C3          0.8590   -0.8831   -1.4565 C.3       1 <0>        -0.1126
      5 C4          0.8756   -2.3972   -1.2372 C.3       1 <0>        -0.1431
      6 C5          1.5453   -2.7112    0.1021 C.3       1 <0>        -0.1036
      7 C6          0.7628   -2.0407    1.2331 C.3       1 <0>        -0.1381
      8 H2          1.2399   -2.2645    2.1873 H         1 <0>         0.0958
      9 C7          0.7461   -0.5266    1.0139 C.3       1 <0>        -0.1011
     10 C8         -0.6510   -2.5624    1.2438 C.2       1 <0>         0.3636
     11 O1         -1.0735   -3.1809    0.2967 O.2       1 <0>        -0.4284
     12 C9         -1.5375   -2.3121    2.4365 C.3       1 <0>        -0.1850
     13 C10        -2.9102   -2.9422    2.1929 C.3       1 <0>         0.0890
     14 H3         -3.3229   -2.5771    1.2524 H         1 <0>         0.0846
     15 C11        -3.8627   -2.5883    3.3552 C.3       1 <0>        -0.1529
     16 C12        -4.6484   -3.9134    3.5524 C.3       1 <0>        -0.1569
     17 C13        -3.5541   -4.9572    3.2155 C.3       1 <0>         0.0455
     18 O2         -2.7892   -4.3688    2.1491 O.3       1 <0>        -0.3667
     19 H4          1.0824    1.6788   -0.5524 H         1 <0>         0.0556
     20 H5         -0.4172    1.5253   -1.4989 H         1 <0>         0.0556
     21 H6         -0.4976    1.7792    0.2610 H         1 <0>         0.0540
     22 H7          0.3819   -0.6593   -2.4106 H         1 <0>         0.0603
     23 H8          1.8816   -0.5058   -1.4642 H         1 <0>         0.0589
     24 H9         -0.1470   -2.7745   -1.2295 H         1 <0>         0.0989
     25 H10         1.4331   -2.8749   -2.0430 H         1 <0>         0.0569
     26 H11         1.5571   -3.7899    0.2583 H         1 <0>         0.0632
     27 H12         2.5678   -2.3339    0.0944 H         1 <0>         0.0648
     28 H13         1.7687   -0.1493    1.0062 H         1 <0>         0.0752
     29 H14         0.1887   -0.0489    1.8196 H         1 <0>         0.0674
     30 H15        -1.0864   -2.7558    3.3240 H         1 <0>         0.1008
     31 H16        -1.6518   -1.2383    2.5853 H         1 <0>         0.1060
     32 H17        -3.3005   -2.3333    4.2535 H         1 <0>         0.0792
     33 H18        -4.5343   -1.7774    3.0732 H         1 <0>         0.0838
     34 H19        -4.9882   -4.0189    4.5828 H         1 <0>         0.0838
     35 H20        -5.4843   -3.9818    2.8562 H         1 <0>         0.0793
     36 H21        -2.9197   -5.1341    4.0841 H         1 <0>         0.0591
     37 H22        -4.0102   -5.8897    2.8830 H         1 <0>         0.0854
@<TRIPOS>BOND
     1    1    2 1
     2    1   19 1
     3    1   20 1
     4    1   21 1
     5    2    3 1
     6    2    9 1
     7    2    4 1
     8    4    5 1
     9    4   22 1
    10    4   23 1
    11    5    6 1
    12    5   24 1
    13    5   25 1
    14    6    7 1
    15    6   26 1
    16    6   27 1
    17    7    8 1
    18    7    9 1
    19    7   10 1
    20    9   28 1
    21    9   29 1
    22   10   11 2
    23   10   12 1
    24   12   13 1
    25   12   30 1
    26   12   31 1
    27   13   14 1
    28   13   18 1
    29   13   15 1
    30   15   16 1
    31   15   32 1
    32   15   33 1
    33   16   17 1
    34   16   34 1
    35   16   35 1
    36   17   18 1
    37   17   36 1
    38   17   37 1
@<TRIPOS>MOLECULE
ZINC63862018
   23    24     0     0     0
SMALL
USER_CHARGES

@<TRIPOS>ATOM
      1 C1         -0.0169    1.3949    0.0097 C.ar      1 <0>        -0.1028
      2 C2          1.1682    2.0983    0.0022 C.ar      1 <0>        -0.1177
      3 C3          2.3799    1.4244   -0.0130 C.ar      1 <0>         0.0964
      4 C4          2.4097    0.0368   -0.0212 C.ar      1 <0>         0.0465
      5 C5          1.2288   -0.6816   -0.0143 C.ar      1 <0>         0.1188
      6 C6          0.0021   -0.0041    0.0020 C.ar      1 <0>         0.0639
      7 N1         -1.1670   -0.7047    0.0099 N.2       1 <0>        -0.4316
      8 C7         -2.1802   -0.2930   -0.7053 C.2       1 <0>         0.2225
      9 C8         -3.3947   -1.0209   -0.6972 C.2       1 <0>         0.1113
     10 N2         -3.6531   -2.1108   -0.0253 N.2       1 <0>        -0.4105
     11 C9         -4.8943   -2.5731   -0.2178 C.2       1 <0>        -0.0078
     12 C10        -5.5992   -1.8138   -1.0591 C.2       1 <0>        -0.1684
     13 C11        -4.6623   -0.6896   -1.4617 C.3       1 <0>        -0.1297
     14 F1          1.2570   -2.0323   -0.0231 F         1 <0>        -0.1026
     15 F2          3.5943   -0.6125   -0.0365 F         1 <0>        -0.1106
     16 F3          3.5370    2.1217   -0.0203 F         1 <0>        -0.1148
     17 H1         -0.9589    1.9228    0.0260 H         1 <0>         0.1551
     18 H2          1.1531    3.1782    0.0078 H         1 <0>         0.1603
     19 H3         -2.0912    0.6023   -1.3026 H         1 <0>         0.1324
     20 H4         -5.2827   -3.4626    0.2556 H         1 <0>         0.1619
     21 H5         -6.6190   -1.9646   -1.3812 H         1 <0>         0.1604
     22 H6         -5.0595    0.2766   -1.1509 H         1 <0>         0.1338
     23 H7         -4.4808   -0.7064   -2.5364 H         1 <0>         0.1332
@<TRIPOS>BOND
     1    1    6 ar
     2    1    2 ar
     3    1   17 1
     4    2    3 ar
     5    2   18 1
     6    3    4 ar
     7    3   16 1
     8    4    5 ar
     9    4   15 1
    10    5    6 ar
    11    5   14 1
    12    6    7 1
    13    7    8 2
    14    8    9 1
    15    8   19 1
    16    9   13 1
    17    9   10 2
    18   10   11 1
    19   11   12 2
    20   11   20 1
    21   12   13 1
    22   12   21 1
    23   13   22 1
    24   13   23 1
@<TRIPOS>MOLECULE
ZINC21779374
   30    32     0     0     0
SMALL
USER_CHARGES
4-chloro-7-(4-fluorophenyl)-5,6-dimethyl-pyrrolo[2,3-d]pyrimidine
@<TRIPOS>ATOM
      1 C1         -2.5092   -0.8585    0.0214 C.3       1 <0>        -0.0851
      2 C2         -1.0152   -1.0552    0.0061 C.2       1 <0>        -0.1296
      3 C3         -0.3630   -2.2288   -0.0064 C.2       1 <0>         0.0927
      4 N1          0.9915   -2.0103   -0.0182 N.pl3     1 <0>        -0.4140
      5 C4          1.2489   -0.6646   -0.0134 C.ar      1 <0>         0.3403
      6 C5          0.0021   -0.0041    0.0020 C.ar      1 <0>        -0.1877
      7 C6         -0.0168    1.3910    0.0097 C.ar      1 <0>         0.2753
      8 N2          1.1389    2.0375    0.0021 N.ar      1 <0>        -0.5289
      9 C7          2.2872    1.3844   -0.0131 C.ar      1 <0>         0.3336
     10 N3          2.3564    0.0704   -0.0204 N.ar      1 <0>        -0.5189
     11 Cl1        -1.5202    2.2590    0.0216 Cl        1 <0>        -0.0048
     12 C8          1.9684   -3.0159   -0.0336 C.ar      1 <0>         0.1037
     13 C9          2.0739   -3.8656   -1.1264 C.ar      1 <0>        -0.0773
     14 C10         3.0400   -4.8525   -1.1419 C.ar      1 <0>        -0.1408
     15 C11         3.8965   -5.0012   -0.0640 C.ar      1 <0>         0.1152
     16 C12         3.7894   -4.1580    1.0292 C.ar      1 <0>        -0.1392
     17 C13         2.8277   -3.1668    1.0463 C.ar      1 <0>        -0.0665
     18 F1          4.8375   -5.9705   -0.0787 F         1 <0>        -0.1306
     19 C14        -1.0209   -3.5846   -0.0067 C.3       1 <0>        -0.0990
     20 H1         -3.0081   -1.8389    0.0209 H         1 <0>         0.0720
     21 H2         -2.8135   -0.2918   -0.8709 H         1 <0>         0.0731
     22 H3         -2.7964   -0.3013    0.9253 H         1 <0>         0.0730
     23 H4          3.2061    1.9519   -0.0191 H         1 <0>         0.2120
     24 H5          1.4033   -3.7528   -1.9654 H         1 <0>         0.1407
     25 H6          3.1251   -5.5111   -1.9936 H         1 <0>         0.1481
     26 H7          4.4580   -4.2757    1.8691 H         1 <0>         0.1477
     27 H8          2.7440   -2.5098    1.8993 H         1 <0>         0.1379
     28 H9         -0.2480   -4.3672   -0.0184 H         1 <0>         0.0741
     29 H10        -1.6565   -3.6835   -0.8990 H         1 <0>         0.0917
     30 H11        -1.6385   -3.6927    0.8971 H         1 <0>         0.0914
@<TRIPOS>BOND
     1    1    2 1
     2    1   20 1
     3    1   21 1
     4    1   22 1
     5    2    6 1
     6    2    3 2
     7    3    4 1
     8    3   19 1
     9    4    5 1
    10    4   12 1
    11    5   10 ar
    12    5    6 ar
    13    6    7 ar
    14    7    8 ar
    15    7   11 1
    16    8    9 ar
    17    9   10 ar
    18    9   23 1
    19   12   17 ar
    20   12   13 ar
    21   13   14 ar
    22   13   24 1
    23   14   15 ar
    24   14   25 1
    25   15   16 ar
    26   15   18 1
    27   16   17 ar
    28   16   26 1
    29   17   27 1
    30   19   28 1
    31   19   29 1
    32   19   30 1
@<TRIPOS>MOLECULE
ZINC37981612
   18    19     0     0     0
SMALL
USER_CHARGES

@<TRIPOS>ATOM
      1 C1         -0.0935    1.3449    0.1286 C.ar      1 <0>        -0.1027
      2 C2          1.0705    2.0836    0.0200 C.ar      1 <0>        -0.0923
      3 C3          2.2897    1.4434   -0.1027 C.ar      1 <0>        -0.1010
      4 C4          2.3479    0.0622   -0.1167 C.ar      1 <0>        -0.0310
      5 C5          1.1805   -0.6813   -0.0073 C.ar      1 <0>         0.0821
      6 C6         -0.0413   -0.0355    0.1152 C.ar      1 <0>        -0.0945
      7 O1          1.2343   -2.0392   -0.0212 O.3       1 <0>        -0.2044
      8 C7          1.4637   -2.6810    1.1553 C.2       1 <0>         0.2669
      9 C8          1.6101   -4.0528    1.2347 C.2       1 <0>         0.0893
     10 N1          1.8281   -4.5500    2.4280 N.2       1 <0>        -0.4337
     11 S1          1.8401   -3.2643    3.4068 S.3       1 <0>         0.5454
     12 N2          1.5681   -2.0396    2.3009 N.2       1 <0>        -0.4898
     13 Cl1         1.5099   -5.0649   -0.1721 Cl        1 <0>         0.0452
     14 Cl2         3.8789   -0.7415   -0.2713 Cl        1 <0>        -0.0489
     15 H1         -1.0441    1.8477    0.2284 H         1 <0>         0.1415
     16 H2          1.0270    3.1627    0.0307 H         1 <0>         0.1418
     17 H3          3.1972    2.0227   -0.1880 H         1 <0>         0.1441
     18 H4         -0.9509   -0.6115    0.2004 H         1 <0>         0.1420
@<TRIPOS>BOND
     1    1    6 ar
     2    1    2 ar
     3    1   15 1
     4    2    3 ar
     5    2   16 1
     6    3    4 ar
     7    3   17 1
     8    4    5 ar
     9    4   14 1
    10    5    6 ar
    11    5    7 1
    12    6   18 1
    13    7    8 1
    14    8   12 2
    15    8    9 1
    16    9   10 2
    17    9   13 1
    18   10   11 1
    19   11   12 1
@<TRIPOS>MOLECULE
ZINC40732510
   41    42     0     0     0
SMALL
USER_CHARGES

@<TRIPOS>ATOM
      1 C1         -0.0187    1.5258    0.0104 C.3       1 <0>        -0.1457
      2 C2          0.0021   -0.0041    0.0020 C.3       1 <0>        -0.0433
      3 C3          0.7309   -0.5033    1.2229 C.2       1 <0>        -0.2313
      4 C4          2.1038   -0.7537    1.3166 C.2       1 <0>         0.0802
      5 N1          2.3608   -1.1737    2.5288 N.2       1 <0>        -0.2845
      6 N2          1.1578   -1.2038    3.2459 N.pl3     1 <0>        -0.3771
      7 C5          0.1738   -0.7829    2.4239 C.2       1 <0>         0.0844
      8 C6         -1.2849   -0.6512    2.7789 C.3       1 <0>        -0.0941
      9 C7          0.9972   -1.6143    4.6430 C.3       1 <0>         0.1793
     10 H1         -0.0547   -1.5306    4.9160 H         1 <0>         0.1152
     11 C8          1.4229   -3.0510    4.7803 C.3       1 <0>        -0.1275
     12 C9          0.5234   -3.7300    5.8333 C.3       1 <0>        -0.1166
     13 C10         0.9391   -3.4289    7.1952 C.3       1 <0>        -0.1256
     14 C11         0.8563   -1.9224    7.5157 C.3       1 <0>        -0.1200
     15 C12         2.0721   -1.2446    6.9443 C.3       1 <0>        -0.1094
     16 C13         1.8212   -0.6691    5.5381 C.3       1 <0>         0.0044
     17 H2          1.2870    0.2759    5.6371 H         1 <0>         0.1109
     18 C14         3.1179   -0.4124    4.8903 C.1       1 <0>         0.2008
     19 N3          4.1186   -0.2143    4.3905 N.1       1 <0>        -0.4018
     20 C15         3.1128   -0.5713    0.2122 C.3       1 <0>        -0.0727
     21 H3          1.0039    1.9031    0.0027 H         1 <0>         0.0527
     22 H4         -0.5459    1.8868   -0.8726 H         1 <0>         0.0548
     23 H5         -0.5289    1.8773    0.9072 H         1 <0>         0.0506
     24 H6         -1.0205   -0.3814    0.0098 H         1 <0>         0.0652
     25 H7          0.5123   -0.3556   -0.8948 H         1 <0>         0.0681
     26 H8         -1.7971   -1.5893    2.5647 H         1 <0>         0.0805
     27 H9         -1.3812   -0.4186    3.8394 H         1 <0>         0.0694
     28 H10        -1.7315    0.1494    2.1893 H         1 <0>         0.0864
     29 H11         1.3125   -3.5588    3.8222 H         1 <0>         0.0784
     30 H12         2.4629   -3.0954    5.1038 H         1 <0>         0.0786
     31 H13        -0.5025   -3.3890    5.6938 H         1 <0>         0.0648
     32 H14         0.5580   -4.8092    5.6841 H         1 <0>         0.0699
     33 H15         0.2977   -3.9730    7.8885 H         1 <0>         0.0673
     34 H16         1.9675   -3.7630    7.3324 H         1 <0>         0.0653
     35 H17        -0.0429   -1.5013    7.0661 H         1 <0>         0.0699
     36 H18         0.8307   -1.7788    8.5959 H         1 <0>         0.0768
     37 H19         2.3696   -0.4342    7.6098 H         1 <0>         0.0794
     38 H20         2.8853   -1.9682    6.8876 H         1 <0>         0.0754
     39 H21         3.5122    0.4422    0.2487 H         1 <0>         0.0743
     40 H22         3.9250   -1.2868    0.3403 H         1 <0>         0.0703
     41 H23         2.6308   -0.7374   -0.7513 H         1 <0>         0.0765
@<TRIPOS>BOND
     1    1    2 1
     2    1   21 1
     3    1   22 1
     4    1   23 1
     5    2    3 1
     6    2   24 1
     7    2   25 1
     8    3    7 2
     9    3    4 1
    10    4    5 2
    11    4   20 1
    12    5    6 1
    13    6    7 1
    14    6    9 1
    15    7    8 1
    16    8   26 1
    17    8   27 1
    18    8   28 1
    19    9   10 1
    20    9   16 1
    21    9   11 1
    22   11   12 1
    23   11   29 1
    24   11   30 1
    25   12   13 1
    26   12   31 1
    27   12   32 1
    28   13   14 1
    29   13   33 1
    30   13   34 1
    31   14   15 1
    32   14   35 1
    33   14   36 1
    34   15   16 1
    35   15   37 1
    36   15   38 1
    37   16   17 1
    38   16   18 1
    39   18   19 3
    40   20   39 1
    41   20   40 1
    42   20   41 1
@<TRIPOS>MOLECULE
ZINC54862627
   38    40     0     0     0
SMALL
USER_CHARGES

@<TRIPOS>ATOM
      1 C1         -0.0187    1.5258    0.0104 C.3       1 <0>        -0.1434
      2 C2          0.0021   -0.0041    0.0020 C.3       1 <0>        -0.1028
      3 H1          0.4972   -0.3811   -0.8929 H         1 <0>         0.0909
      4 C3         -1.4329   -0.5804    0.1283 C.3       1 <0>        -0.1294
      5 C4         -1.1949   -1.9622    0.7731 C.3       1 <0>         0.1152
      6 N1          0.1073   -1.9079    1.4534 N.pl3     1 <0>        -0.5597
      7 C5          0.6743   -0.5573    1.2833 C.3       1 <0>         0.1093
      8 C6          0.6993   -2.9459    2.1366 C.2       1 <0>         0.3505
      9 N2          0.2402   -4.1755    2.3157 N.2       1 <0>        -0.6026
     10 C7          0.9088   -5.0780    2.9913 C.2       1 <0>         0.2236
     11 C8          2.1358   -4.6291    3.4968 C.2       1 <0>        -0.3974
     12 S1          2.1837   -2.9546    2.9369 S.3       1 <0>         0.1750
     13 C9          3.0297   -5.3925    4.2372 C.2       1 <0>         0.4467
     14 O1          4.0670   -4.9213    4.6597 O.2       1 <0>        -0.4803
     15 C10         2.6546   -6.8403    4.4959 C.3       1 <0>        -0.1436
     16 C11         1.1327   -6.9653    4.5717 C.3       1 <0>        -0.0572
     17 C12         0.4777   -6.5117    3.2636 C.3       1 <0>        -0.0410
     18 C13         0.6141   -6.0978    5.7204 C.3       1 <0>        -0.1513
     19 C14         0.7614   -8.4253    4.8394 C.3       1 <0>        -0.1419
     20 H2          1.0039    1.9031    0.0027 H         1 <0>         0.0630
     21 H3         -0.5459    1.8868   -0.8726 H         1 <0>         0.0668
     22 H4         -0.5289    1.8773    0.9072 H         1 <0>         0.0614
     23 H5         -2.0449    0.0472    0.7762 H         1 <0>         0.0831
     24 H6         -1.8934   -0.6873   -0.8538 H         1 <0>         0.0905
     25 H7         -1.9824   -2.1744    1.4962 H         1 <0>         0.0752
     26 H8         -1.1788   -2.7330    0.0025 H         1 <0>         0.0751
     27 H9          1.7549   -0.6127    1.1511 H         1 <0>         0.0829
     28 H10         0.4278    0.0681    2.1413 H         1 <0>         0.0826
     29 H11         3.0306   -7.4638    3.6847 H         1 <0>         0.1018
     30 H12         3.0936   -7.1666    5.4387 H         1 <0>         0.0992
     31 H13        -0.6070   -6.5579    3.3599 H         1 <0>         0.0946
     32 H14         0.8031   -7.1554    2.4464 H         1 <0>         0.0970
     33 H15         0.8876   -5.0578    5.5424 H         1 <0>         0.0569
     34 H16        -0.4709   -6.1833    5.7790 H         1 <0>         0.0607
     35 H17         1.0563   -6.4344    6.6581 H         1 <0>         0.0617
     36 H18         1.2025   -8.7452    5.7834 H         1 <0>         0.0635
     37 H19        -0.3231   -8.5201    4.8944 H         1 <0>         0.0623
     38 H20         1.1402   -9.0506    4.0310 H         1 <0>         0.0609
@<TRIPOS>BOND
     1    1    2 1
     2    1   20 1
     3    1   21 1
     4    1   22 1
     5    2    3 1
     6    2    7 1
     7    2    4 1
     8    4    5 1
     9    4   23 1
    10    4   24 1
    11    5    6 1
    12    5   25 1
    13    5   26 1
    14    6    7 1
    15    6    8 1
    16    7   27 1
    17    7   28 1
    18    8   12 1
    19    8    9 2
    20    9   10 1
    21   10   17 1
    22   10   11 2
    23   11   12 1
    24   11   13 1
    25   13   14 2
    26   13   15 1
    27   15   16 1
    28   15   29 1
    29   15   30 1
    30   16   17 1
    31   16   18 1
    32   16   19 1
    33   17   31 1
    34   17   32 1
    35   18   33 1
    36   18   34 1
    37   18   35 1
    38   19   36 1
    39   19   37 1
    40   19   38 1
@<TRIPOS>MOLECULE
ZINC05748063
   39    41     0     0     0
SMALL
USER_CHARGES

@<TRIPOS>ATOM
      1 C1         -0.0184    1.5028    0.0103 C.3       1 <0>        -0.1172
      2 C2          0.0021   -0.0041    0.0020 C.ar      1 <0>        -0.0785
      3 C3          0.0057   -0.6883   -1.1999 C.ar      1 <0>        -0.1019
      4 C4          0.0240   -2.0707   -1.2114 C.ar      1 <0>        -0.1111
      5 C5          0.0387   -2.7726   -0.0217 C.ar      1 <0>        -0.1023
      6 C6          0.0355   -2.0886    1.1861 C.ar      1 <0>         0.1067
      7 C7          0.0229   -0.7002    1.1945 C.ar      1 <0>        -0.0661
      8 C8          0.0251    0.0462    2.5037 C.3       1 <0>        -0.1181
      9 N1          0.0504   -2.7983    2.3952 N.am      1 <0>        -0.5395
     10 C9         -1.0745   -3.1912    3.0337 C.2       1 <0>         0.5421
     11 O1         -2.2073   -3.1479    2.6042 O.2       1 <0>        -0.4545
     12 C10        -0.6404   -3.6921    4.3817 C.3       1 <0>        -0.1223
     13 H1         -0.5867   -2.8270    5.0425 H         1 <0>         0.1190
     14 C11        -1.5187   -4.7041    5.0408 C.3       1 <0>        -0.0739
     15 C12        -1.2319   -6.1119    4.6237 C.2       1 <0>        -0.1495
     16 C13        -0.1883   -6.4508    3.9425 C.2       1 <0>        -0.1261
     17 C14         0.8428   -5.5031    3.4354 C.3       1 <0>        -0.0788
     18 C15         0.8036   -4.1540    4.1273 C.3       1 <0>        -0.0983
     19 H2          1.4336   -4.1142    5.0159 H         1 <0>         0.1400
     20 C16         1.1869   -3.1557    3.0237 C.2       1 <0>         0.5258
     21 O2          2.3045   -2.7618    2.7681 O.2       1 <0>        -0.4586
     22 C17         0.0005   -7.9147    3.6383 C.3       1 <0>        -0.1221
     23 H3          1.0042    1.8801    0.0026 H         1 <0>         0.0747
     24 H4         -0.5455    1.8639   -0.8728 H         1 <0>         0.0712
     25 H5         -0.5286    1.8543    0.9071 H         1 <0>         0.0704
     26 H6         -0.0061   -0.1417   -2.1312 H         1 <0>         0.1305
     27 H7          0.0264   -2.6023   -2.1515 H         1 <0>         0.1324
     28 H8          0.0522   -3.8525   -0.0314 H         1 <0>         0.1245
     29 H9         -1.0019    0.2121    2.8291 H         1 <0>         0.0746
     30 H10         0.5541   -0.5399    3.2552 H         1 <0>         0.0605
     31 H11         0.5247    1.0062    2.3738 H         1 <0>         0.0783
     32 H12        -1.3892   -4.6274    6.1203 H         1 <0>         0.0939
     33 H13        -2.5566   -4.4740    4.8001 H         1 <0>         0.0922
     34 H14        -1.9325   -6.8835    4.9067 H         1 <0>         0.1181
     35 H15         1.8276   -5.9463    3.5830 H         1 <0>         0.0930
     36 H16         0.6857   -5.3545    2.3671 H         1 <0>         0.0740
     37 H17        -0.8234   -8.4843    4.0682 H         1 <0>         0.0648
     38 H18         0.0196   -8.0619    2.5585 H         1 <0>         0.0641
     39 H19         0.9419   -8.2566    4.0684 H         1 <0>         0.0678
@<TRIPOS>BOND
     1    1    2 1
     2    1   23 1
     3    1   24 1
     4    1   25 1
     5    2    7 ar
     6    2    3 ar
     7    3    4 ar
     8    3   26 1
     9    4    5 ar
    10    4   27 1
    11    5    6 ar
    12    5   28 1
    13    6    7 ar
    14    6    9 1
    15    7    8 1
    16    8   29 1
    17    8   30 1
    18    8   31 1
    19    9   20 am
    20    9   10 am
    21   10   11 2
    22   10   12 1
    23   12   13 1
    24   12   18 1
    25   12   14 1
    26   14   15 1
    27   14   32 1
    28   14   33 1
    29   15   16 2
    30   15   34 1
    31   16   17 1
    32   16   22 1
    33   17   18 1
    34   17   35 1
    35   17   36 1
    36   18   19 1
    37   18   20 1
    38   20   21 2
    39   22   37 1
    40   22   38 1
    41   22   39 1
@<TRIPOS>MOLECULE
ZINC36898680
   38    40     0     0     0
SMALL
USER_CHARGES

@<TRIPOS>ATOM
      1 C1          1.0189    1.4420   -0.5160 C.3       1 <0>        -0.1106
      2 C2          0.7875   -0.0437   -0.4141 C.ar      1 <0>        -0.0933
      3 C3          0.8361   -0.8265   -1.5590 C.ar      1 <0>        -0.1059
      4 C4          0.6270   -2.1870   -1.4845 C.ar      1 <0>        -0.0871
      5 C5          0.3665   -2.7764   -0.2548 C.ar      1 <0>         0.0692
      6 C6          0.3179   -1.9835    0.9041 C.ar      1 <0>         0.0440
      7 C7          0.5377   -0.6070    0.8050 C.ar      1 <0>        -0.0690
      8 N1          0.0491   -2.8164    1.9422 N.2       1 <0>        -0.4675
      9 C8         -0.0671   -4.0364    1.5053 C.2       1 <0>         0.2514
     10 N2          0.1191   -4.0703    0.1581 N.pl3     1 <0>        -0.4711
     11 C9          0.0663   -5.2592   -0.6961 C.3       1 <0>         0.1252
     12 H1         -0.0202   -6.1501   -0.0740 H         1 <0>         0.1081
     13 C10         1.3446   -5.3435   -1.5326 C.3       1 <0>        -0.1695
     14 C11        -1.1459   -5.1663   -1.6251 C.3       1 <0>         0.0704
     15 H2         -2.0512   -5.0147   -1.0374 H         1 <0>         0.0879
     16 C12        -1.2707   -6.4625   -2.4544 C.3       1 <0>        -0.1509
     17 C13        -1.7023   -5.9235   -3.8455 C.3       1 <0>        -0.1537
     18 C14        -0.9360   -4.5776   -3.8901 C.3       1 <0>         0.0436
     19 O1         -0.9735   -4.0790   -2.5415 O.3       1 <0>        -0.3618
     20 C15        -0.3640   -5.2372    2.3662 C.3       1 <0>         0.0403
     21 Cl1        -2.1463   -5.3889    2.5918 Cl        1 <0>        -0.1475
     22 H3          2.0822    1.6528   -0.4022 H         1 <0>         0.0694
     23 H4          0.6803    1.7965   -1.4895 H         1 <0>         0.0664
     24 H5          0.4613    1.9512    0.2701 H         1 <0>         0.0661
     25 H6          1.0389   -0.3665   -2.5149 H         1 <0>         0.1275
     26 H7          0.6652   -2.7915   -2.3787 H         1 <0>         0.1352
     27 H8          0.5062    0.0109    1.6902 H         1 <0>         0.1271
     28 H9          2.2082   -5.4097   -0.8707 H         1 <0>         0.0661
     29 H10         1.3053   -6.2281   -2.1682 H         1 <0>         0.0792
     30 H11         1.4311   -4.4526   -2.1547 H         1 <0>         0.0773
     31 H12        -0.3115   -6.9763   -2.5179 H         1 <0>         0.0848
     32 H13        -2.0360   -7.1174   -2.0377 H         1 <0>         0.0880
     33 H14        -1.3740   -6.5891   -4.6438 H         1 <0>         0.0867
     34 H15        -2.7797   -5.7638   -3.8879 H         1 <0>         0.0808
     35 H16         0.0947   -4.7393   -4.2058 H         1 <0>         0.0623
     36 H17        -1.4341   -3.8808   -4.5642 H         1 <0>         0.0887
     37 H18         0.0187   -6.1353    1.8815 H         1 <0>         0.1113
     38 H19         0.1161   -5.1157    3.3372 H         1 <0>         0.1307
@<TRIPOS>BOND
     1    1    2 1
     2    1   22 1
     3    1   23 1
     4    1   24 1
     5    2    7 ar
     6    2    3 ar
     7    3    4 ar
     8    3   25 1
     9    4    5 ar
    10    4   26 1
    11    5   10 1
    12    5    6 ar
    13    6    7 ar
    14    6    8 1
    15    7   27 1
    16    8    9 2
    17    9   10 1
    18    9   20 1
    19   10   11 1
    20   11   12 1
    21   11   13 1
    22   11   14 1
    23   13   28 1
    24   13   29 1
    25   13   30 1
    26   14   15 1
    27   14   19 1
    28   14   16 1
    29   16   17 1
    30   16   31 1
    31   16   32 1
    32   17   18 1
    33   17   33 1
    34   17   34 1
    35   18   19 1
    36   18   35 1
    37   18   36 1
    38   20   21 1
    39   20   37 1
    40   20   38 1
@<TRIPOS>MOLECULE
ZINC39525078
   41    42     0     0     0
SMALL
USER_CHARGES

@<TRIPOS>ATOM
      1 C1          0.0791    1.5654   -0.1053 C.3       1 <0>        -0.1527
      2 C2          0.0450    0.0380   -0.0238 C.3       1 <0>         0.0572
      3 O1          0.7626   -0.3934    1.1342 O.3       1 <0>        -0.3824
      4 C3          0.7918   -1.8118    1.3050 C.3       1 <0>         0.0991
      5 H1          0.7502   -2.2962    0.3294 H         1 <0>         0.0640
      6 C4         -0.4110   -2.2494    2.1433 C.3       1 <0>        -0.1437
      7 C5         -0.3797   -3.7680    2.3271 C.3       1 <0>        -0.1147
      8 C6          0.9129   -4.1686    3.0412 C.3       1 <0>        -0.1167
      9 C7          2.1152   -3.7318    2.2014 C.3       1 <0>         0.1167
     10 C8          2.0843   -2.2131    2.0188 C.3       1 <0>        -0.1509
     11 C9          2.0522   -4.4110    0.8313 C.3       1 <0>        -0.1097
     12 C10         3.2674   -3.9885    0.0010 C.3       1 <0>        -0.1267
     13 C11         4.5461   -4.3602    0.7568 C.3       1 <0>        -0.1394
     14 C12         4.5371   -3.6819    2.1286 C.3       1 <0>         0.2385
     15 H2          4.5054   -2.6002    1.9987 H         1 <0>         0.0946
     16 N1          3.3562   -4.1187    2.8844 N.3       1 <0>        -0.4728
     17 Br1         3.3946   -3.4605    4.6129 Br        1 <0>         0.0273
     18 O2          5.7202   -4.0410    2.8451 O.3       1 <0>        -0.3651
     19 C13         5.9047   -5.4503    2.9933 C.3       1 <0>         0.0268
     20 H3          1.1134    1.9027   -0.1723 H         1 <0>         0.0627
     21 H4         -0.4683    1.8945   -0.9886 H         1 <0>         0.0713
     22 H5         -0.3835    1.9873    0.7869 H         1 <0>         0.0633
     23 H6         -0.9894   -0.2993    0.0433 H         1 <0>         0.0481
     24 H7          0.5076   -0.3839   -0.9160 H         1 <0>         0.0472
     25 H8         -0.3698   -1.7645    3.1186 H         1 <0>         0.0731
     26 H9         -1.3316   -1.9640    1.6343 H         1 <0>         0.0663
     27 H10        -1.2364   -4.0794    2.9247 H         1 <0>         0.0734
     28 H11        -0.4214   -4.2530    1.3519 H         1 <0>         0.0673
     29 H12         0.9550   -3.6830    4.0161 H         1 <0>         0.0798
     30 H13         0.9352   -5.2504    3.1726 H         1 <0>         0.0782
     31 H14         2.9411   -1.9014    1.4215 H         1 <0>         0.0753
     32 H15         2.1259   -1.7288    2.9945 H         1 <0>         0.0839
     33 H16         2.0586   -5.4932    0.9610 H         1 <0>         0.0796
     34 H17         1.1387   -4.1109    0.3181 H         1 <0>         0.0833
     35 H18         3.2491   -4.5036   -0.9595 H         1 <0>         0.0769
     36 H19         3.2405   -2.9111   -0.1618 H         1 <0>         0.0680
     37 H20         4.5914   -5.4416    0.8857 H         1 <0>         0.0823
     38 H21         5.4145   -4.0239    0.1902 H         1 <0>         0.0853
     39 H22         6.7622   -5.6384    3.6394 H         1 <0>         0.0843
     40 H23         5.0115   -5.8889    3.4381 H         1 <0>         0.0584
     41 H24         6.0813   -5.8984    2.0155 H         1 <0>         0.0425
@<TRIPOS>BOND
     1    1    2 1
     2    1   20 1
     3    1   21 1
     4    1   22 1
     5    2    3 1
     6    2   23 1
     7    2   24 1
     8    3    4 1
     9    4    5 1
    10    4   10 1
    11    4    6 1
    12    6    7 1
    13    6   25 1
    14    6   26 1
    15    7    8 1
    16    7   27 1
    17    7   28 1
    18    8    9 1
    19    8   29 1
    20    8   30 1
    21    9   16 1
    22    9   10 1
    23    9   11 1
    24   10   31 1
    25   10   32 1
    26   11   12 1
    27   11   33 1
    28   11   34 1
    29   12   13 1
    30   12   35 1
    31   12   36 1
    32   13   14 1
    33   13   37 1
    34   13   38 1
    35   14   15 1
    36   14   16 1
    37   14   18 1
    38   16   17 1
    39   18   19 1
    40   19   39 1
    41   19   40 1
    42   19   41 1
@<TRIPOS>MOLECULE
ZINC52225069
   30    32     0     0     0
SMALL
USER_CHARGES

@<TRIPOS>ATOM
      1 C1         -0.0042    1.3305   -0.4782 C.ar      1 <0>        -0.1068
      2 C2          1.1807    2.0639   -0.4886 C.ar      1 <0>        -0.1026
      3 C3          2.3867    1.4484   -0.3467 C.ar      1 <0>        -0.1046
      4 C4          2.4411    0.0547   -0.1868 C.ar      1 <0>        -0.0342
      5 C5          1.2370   -0.6919   -0.1756 C.ar      1 <0>        -0.0438
      6 C6          0.0103   -0.0218   -0.3255 C.ar      1 <0>        -0.1034
      7 C7          1.2897   -2.0868   -0.0153 C.ar      1 <0>        -0.0795
      8 C8          2.4921   -2.7093    0.1277 C.ar      1 <0>        -0.1114
      9 C9          3.6812   -1.9860    0.1186 C.ar      1 <0>        -0.0885
     10 C10         3.6721   -0.6173   -0.0366 C.ar      1 <0>         0.1164
     11 N1          4.8739    0.1003   -0.0451 N.pl3     1 <0>        -0.2422
     12 C11         5.9839   -0.2083   -0.7706 C.2       1 <0>        -0.0345
     13 C12         6.8994    0.7448   -0.4775 C.2       1 <0>        -0.0184
     14 N2          6.3185    1.5751    0.3959 N.2       1 <0>        -0.2563
     15 N3          5.1201    1.1700    0.6274 N.2       1 <0>        -0.0682
     16 C13         8.2988    0.8497   -1.0269 C.3       1 <0>        -0.0303
     17 C14         8.4965    2.2291   -1.6587 C.3       1 <0>        -0.0727
     18 Br1        10.3221    2.3659   -2.3755 Br        1 <0>        -0.1568
     19 H1         -0.9482    1.8433   -0.5885 H         1 <0>         0.1303
     20 H2          1.1417    3.1362   -0.6114 H         1 <0>         0.1294
     21 H3          3.2971    2.0294   -0.3574 H         1 <0>         0.1315
     22 H4         -0.9159   -0.5772   -0.3190 H         1 <0>         0.1358
     23 H5          0.3773   -2.6645   -0.0051 H         1 <0>         0.1397
     24 H6          2.5237   -3.7819    0.2504 H         1 <0>         0.1402
     25 H7          4.6219   -2.5038    0.2347 H         1 <0>         0.1363
     26 H8          6.1086   -1.0439   -1.4434 H         1 <0>         0.1953
     27 H9          9.0175    0.7138   -0.2188 H         1 <0>         0.0965
     28 H10         8.4512    0.0788   -1.7823 H         1 <0>         0.0948
     29 H11         7.7778    2.3650   -2.4668 H         1 <0>         0.0994
     30 H12         8.3441    2.9999   -0.9033 H         1 <0>         0.1088
@<TRIPOS>BOND
     1    1    6 ar
     2    1    2 ar
     3    1   19 1
     4    2    3 ar
     5    2   20 1
     6    3    4 ar
     7    3   21 1
     8    4   10 ar
     9    4    5 ar
    10    5    6 ar
    11    5    7 ar
    12    6   22 1
    13    7    8 ar
    14    7   23 1
    15    8    9 ar
    16    8   24 1
    17    9   10 ar
    18    9   25 1
    19   10   11 1
    20   11   15 1
    21   11   12 1
    22   12   13 2
    23   12   26 1
    24   13   14 1
    25   13   16 1
    26   14   15 2
    27   16   17 1
    28   16   27 1
    29   16   28 1
    30   17   18 1
    31   17   29 1
    32   17   30 1
@<TRIPOS>MOLECULE
ZINC62666347
   44    45     0     0     0
SMALL
USER_CHARGES

@<TRIPOS>ATOM
      1 C1         -0.4584   -2.6576    0.7498 C.3       1 <0>        -0.1730
      2 C2         -1.6104   -1.9907   -0.0045 C.3       1 <0>         0.0387
      3 N1         -1.4727   -0.5308    0.0827 N.3       1 <0>        -0.5210
      4 C3         -2.2579    0.1355   -0.9649 C.3       1 <0>         0.0457
      5 C4         -1.5325    0.0064   -2.3059 C.3       1 <0>        -0.1457
      6 C5         -1.8536   -0.0447    1.4155 C.3       1 <0>         0.2596
      7 C6         -3.3364   -0.3311    1.6505 C.3       1 <0>        -0.1470
      8 C7         -3.5665   -0.5602    3.1505 C.3       1 <0>        -0.1536
      9 C8         -3.1109    0.6970    3.9002 C.3       1 <0>         0.0593
     10 O1         -3.3530    1.8257    3.0557 O.3       1 <0>        -0.3174
     11 C9         -2.3234    2.2797    2.2969 C.ar      1 <0>         0.1218
     12 C10        -1.5738    1.4332    1.5030 C.ar      1 <0>        -0.1318
     13 C11        -0.5256    1.9463    0.7534 C.ar      1 <0>        -0.0699
     14 C12        -0.2322    3.2949    0.7928 C.ar      1 <0>        -0.1031
     15 C13        -0.9851    4.1436    1.5827 C.ar      1 <0>        -0.0885
     16 C14        -2.0275    3.6391    2.3332 C.ar      1 <0>        -0.1017
     17 C15        -2.8486    4.5636    3.1947 C.3       1 <0>        -0.1087
     18 C16         0.9093    3.8417   -0.0251 C.3       1 <0>        -0.1126
     19 C17        -1.0578   -0.7494    2.4338 C.1       1 <0>         0.2322
     20 N2         -0.4436   -1.2933    3.2195 N.1       1 <0>        -0.4171
     21 H1         -0.3618   -3.6932    0.4238 H         1 <0>         0.0619
     22 H2          0.4689   -2.1235    0.5428 H         1 <0>         0.0666
     23 H3         -0.6616   -2.6312    1.8204 H         1 <0>         0.0639
     24 H4         -1.5849   -2.2963   -1.0505 H         1 <0>         0.0873
     25 H5         -2.5588   -2.2933    0.4394 H         1 <0>         0.0480
     26 H6         -3.2396   -0.3326   -1.0364 H         1 <0>         0.0443
     27 H7         -2.3754    1.1901   -0.7156 H         1 <0>         0.0844
     28 H8         -2.1151    0.5008   -3.0832 H         1 <0>         0.0625
     29 H9         -0.5508    0.4745   -2.2345 H         1 <0>         0.0639
     30 H10        -1.4149   -1.0482   -2.5552 H         1 <0>         0.0554
     31 H11        -3.9301    0.5196    1.3158 H         1 <0>         0.0998
     32 H12        -3.6283   -1.2230    1.0960 H         1 <0>         0.0860
     33 H13        -4.6257   -0.7367    3.3377 H         1 <0>         0.0860
     34 H14        -2.9849   -1.4192    3.4851 H         1 <0>         0.0744
     35 H15        -3.6779    0.8004    4.8253 H         1 <0>         0.1044
     36 H16        -2.0467    0.6266    4.1253 H         1 <0>         0.0596
     37 H17         0.0647    1.2867    0.1347 H         1 <0>         0.1408
     38 H18        -0.7578    5.1990    1.6127 H         1 <0>         0.1301
     39 H19        -2.4037    4.6255    4.1878 H         1 <0>         0.0685
     40 H20        -2.8711    5.5558    2.7441 H         1 <0>         0.0667
     41 H21        -3.8650    4.1780    3.2753 H         1 <0>         0.0742
     42 H22         0.5432    4.1360   -1.0087 H         1 <0>         0.0717
     43 H23         1.3344    4.7096    0.4790 H         1 <0>         0.0665
     44 H24         1.6759    3.0750   -0.1372 H         1 <0>         0.0671
@<TRIPOS>BOND
     1    1    2 1
     2    1   21 1
     3    1   22 1
     4    1   23 1
     5    2    3 1
     6    2   24 1
     7    2   25 1
     8    3    4 1
     9    3    6 1
    10    4    5 1
    11    4   26 1
    12    4   27 1
    13    5   28 1
    14    5   29 1
    15    5   30 1
    16    6   12 1
    17    6    7 1
    18    6   19 1
    19    7    8 1
    20    7   31 1
    21    7   32 1
    22    8    9 1
    23    8   33 1
    24    8   34 1
    25    9   10 1
    26    9   35 1
    27    9   36 1
    28   10   11 1
    29   11   16 ar
    30   11   12 ar
    31   12   13 ar
    32   13   14 ar
    33   13   37 1
    34   14   15 ar
    35   14   18 1
    36   15   16 ar
    37   15   38 1
    38   16   17 1
    39   17   39 1
    40   17   40 1
    41   17   41 1
    42   18   42 1
    43   18   43 1
    44   18   44 1
    45   19   20 3
@<TRIPOS>MOLECULE
ZINC67520821
   50    53     0     0     0
SMALL
USER_CHARGES

@<TRIPOS>ATOM
      1 C1         -0.4884    1.4329    0.1168 C.3       1 <0>        -0.1523
      2 C2         -0.5008   -0.0962    0.0659 C.3       1 <0>         0.0583
      3 O1          0.3481   -0.5445   -0.9925 O.3       1 <0>        -0.3800
      4 C3          0.4080   -1.9659   -1.1272 C.3       1 <0>         0.0790
      5 H1         -0.5366   -2.4022   -0.8022 H         1 <0>         0.0633
      6 C4          1.5472   -2.5132   -0.2641 C.3       1 <0>        -0.1423
      7 C5          1.5912   -4.0384   -0.3821 C.3       1 <0>        -0.1343
      8 C6          1.8595   -4.4264   -1.8396 C.3       1 <0>         0.1017
      9 N1          0.8508   -3.7841   -2.6932 N.am      1 <0>        -0.6108
     10 C7          0.6620   -2.3303   -2.5933 C.3       1 <0>         0.1156
     11 C8          0.1123   -4.5144   -3.5521 C.2       1 <0>         0.5256
     12 O2         -0.7836   -3.9901   -4.1793 O.2       1 <0>        -0.5288
     13 C9          0.3998   -5.9827   -3.7331 C.3       1 <0>        -0.0947
     14 C10         1.7908   -6.1583   -4.3454 C.3       1 <0>        -0.0793
     15 C11         2.0827   -7.6489   -4.5292 C.3       1 <0>        -0.1067
     16 C12         1.0346   -8.2629   -5.4595 C.3       1 <0>        -0.0873
     17 C13         1.0859   -7.5619   -6.8185 C.3       1 <0>        -0.1088
     18 C14         0.7940   -6.0712   -6.6348 C.3       1 <0>        -0.0861
     19 C15         1.8421   -5.4573   -5.7044 C.3       1 <0>        -0.1091
     20 C16        -0.5970   -5.8956   -6.0224 C.3       1 <0>        -0.1232
     21 C17        -0.6483   -6.5966   -4.6634 C.3       1 <0>        -0.0631
     22 C18        -0.3564   -8.0872   -4.8472 C.3       1 <0>        -0.1092
     23 H2          0.5288    1.7823    0.2941 H         1 <0>         0.0634
     24 H3         -0.8491    1.8310   -0.8317 H         1 <0>         0.0640
     25 H4         -1.1359    1.7749    0.9241 H         1 <0>         0.0719
     26 H5         -0.1401   -0.4942    1.0144 H         1 <0>         0.0481
     27 H6         -1.5180   -0.4455   -0.1114 H         1 <0>         0.0489
     28 H7          2.4942   -2.0951   -0.6052 H         1 <0>         0.0749
     29 H8          1.3809   -2.2341    0.7763 H         1 <0>         0.0683
     30 H9          2.3878   -4.4294    0.2510 H         1 <0>         0.0828
     31 H10         0.6356   -4.4557   -0.0645 H         1 <0>         0.0683
     32 H11         2.8538   -4.0877   -2.1308 H         1 <0>         0.0737
     33 H12         1.7937   -5.5090   -1.9476 H         1 <0>         0.0920
     34 H13        -0.1937   -2.0300   -3.1980 H         1 <0>         0.0988
     35 H14         1.5585   -1.8207   -2.9464 H         1 <0>         0.0763
     36 H15         0.3633   -6.4821   -2.7649 H         1 <0>         0.0932
     37 H16         2.5375   -5.7209   -3.6826 H         1 <0>         0.0769
     38 H17         3.0737   -7.7741   -4.9654 H         1 <0>         0.0673
     39 H18         2.0462   -8.1484   -3.5610 H         1 <0>         0.0638
     40 H19         1.2426   -9.3248   -5.5905 H         1 <0>         0.0708
     41 H20         2.0769   -7.6870   -7.2548 H         1 <0>         0.0604
     42 H21         0.3392   -7.9993   -7.4814 H         1 <0>         0.0619
     43 H22         0.8305   -5.5718   -7.6030 H         1 <0>         0.0682
     44 H23         1.6342   -4.3953   -5.5735 H         1 <0>         0.0596
     45 H24         2.8331   -5.5824   -6.1407 H         1 <0>         0.0647
     46 H25        -0.8049   -4.8337   -5.8915 H         1 <0>         0.0947
     47 H26        -1.3437   -6.3330   -6.6853 H         1 <0>         0.0579
     48 H27        -1.6393   -6.4715   -4.2272 H         1 <0>         0.0733
     49 H28        -1.1030   -8.5246   -5.5100 H         1 <0>         0.0666
     50 H29        -0.3929   -8.5867   -3.8790 H         1 <0>         0.0614
@<TRIPOS>BOND
     1    1    2 1
     2    1   23 1
     3    1   24 1
     4    1   25 1
     5    2    3 1
     6    2   26 1
     7    2   27 1
     8    3    4 1
     9    4    5 1
    10    4   10 1
    11    4    6 1
    12    6    7 1
    13    6   28 1
    14    6   29 1
    15    7    8 1
    16    7   30 1
    17    7   31 1
    18    8    9 1
    19    8   32 1
    20    8   33 1
    21    9   10 1
    22    9   11 am
    23   10   34 1
    24   10   35 1
    25   11   12 2
    26   11   13 1
    27   13   21 1
    28   13   14 1
    29   13   36 1
    30   14   19 1
    31   14   15 1
    32   14   37 1
    33   15   16 1
    34   15   38 1
    35   15   39 1
    36   16   22 1
    37   16   17 1
    38   16   40 1
    39   17   18 1
    40   17   41 1
    41   17   42 1
    42   18   19 1
    43   18   20 1
    44   18   43 1
    45   19   44 1
    46   19   45 1
    47   20   21 1
    48   20   46 1
    49   20   47 1
    50   21   22 1
    51   21   48 1
    52   22   49 1
    53   22   50 1
@<TRIPOS>MOLECULE
ZINC17144032
   45    48     0     0     0
SMALL
USER_CHARGES
N-benzhydryloxyquinuclidin-3-imine
@<TRIPOS>ATOM
      1 C1         -2.7414    7.6484   -5.5667 C.ar      1 <0>        -0.1145
      2 C2         -1.9071    8.4083   -4.7682 C.ar      1 <0>        -0.1188
      3 C3         -1.7473    8.0874   -3.4332 C.ar      1 <0>        -0.1044
      4 C4         -2.4224    7.0071   -2.8963 C.ar      1 <0>        -0.0802
      5 C5         -3.2530    6.2444   -3.6959 C.ar      1 <0>        -0.0921
      6 C6         -3.4162    6.5679   -5.0299 C.ar      1 <0>        -0.1213
      7 C7         -2.2483    6.6573   -1.4409 C.3       1 <0>         0.1863
      8 C8         -3.4196    7.1858   -0.6536 C.ar      1 <0>        -0.0984
      9 C9         -4.5820    6.4435   -0.5617 C.ar      1 <0>        -0.0954
     10 C10        -5.6549    6.9263    0.1641 C.ar      1 <0>        -0.1217
     11 C11        -5.5686    8.1557    0.7901 C.ar      1 <0>        -0.1177
     12 C12        -4.4079    8.9002    0.6943 C.ar      1 <0>        -0.1194
     13 C13        -3.3335    8.4155   -0.0279 C.ar      1 <0>        -0.1064
     14 O1         -2.1796    5.2372   -1.2972 O.3       1 <0>        -0.2305
     15 N1         -1.4851    4.8084   -0.1401 N.2       1 <0>        -0.3243
     16 C14        -1.3550    3.5586    0.1015 C.2       1 <0>         0.1001
     17 C15        -0.6225    3.0265    1.3245 C.3       1 <0>         0.1085
     18 N2         -0.6901    1.5544    1.2230 N.3       1 <0>        -0.5149
     19 C16        -0.0127    1.0858    0.0080 C.3       1 <0>         0.0463
     20 C17        -0.7425    1.5875   -1.2389 C.3       1 <0>        -0.1456
     21 C18        -1.9212    2.4766   -0.8116 C.3       1 <0>        -0.0845
     22 C19        -2.8651    1.6119    0.0416 C.3       1 <0>        -0.1451
     23 C20        -2.0834    1.0928    1.2626 C.3       1 <0>         0.0465
     24 H1         -2.8662    7.8991   -6.6097 H         1 <0>         0.1238
     25 H2         -1.3799    9.2524   -5.1876 H         1 <0>         0.1258
     26 H3         -1.0952    8.6808   -2.8095 H         1 <0>         0.1235
     27 H4         -3.7770    5.3978   -3.2775 H         1 <0>         0.1216
     28 H5         -4.0682    5.9744   -5.6537 H         1 <0>         0.1237
     29 H6         -1.3012    7.0592   -1.0519 H         1 <0>         0.0901
     30 H7         -4.6509    5.4848   -1.0542 H         1 <0>         0.1184
     31 H8         -6.5617    6.3445    0.2393 H         1 <0>         0.1213
     32 H9         -6.4080    8.5345    1.3544 H         1 <0>         0.1220
     33 H10        -4.3405    9.8608    1.1834 H         1 <0>         0.1236
     34 H11        -2.4267    8.9973   -0.1031 H         1 <0>         0.1212
     35 H12         0.4188    3.3806    1.3111 H         1 <0>         0.1070
     36 H13        -1.1208    3.3876    2.2363 H         1 <0>         0.1070
     37 H14         1.0199    1.4647   -0.0054 H         1 <0>         0.0813
     38 H15         0.0002   -0.0141   -0.0036 H         1 <0>         0.0850
     39 H16        -0.0473    2.1702   -1.8611 H         1 <0>         0.0682
     40 H17        -1.1179    0.7286   -1.8146 H         1 <0>         0.0756
     41 H18        -2.4399    2.9116   -1.6786 H         1 <0>         0.0983
     42 H19        -3.7194    2.2200    0.3739 H         1 <0>         0.0682
     43 H20        -3.2293    0.7650   -0.5585 H         1 <0>         0.0759
     44 H21        -2.1056   -0.0070    1.2570 H         1 <0>         0.0848
     45 H22        -2.5670    1.4646    2.1780 H         1 <0>         0.0813
@<TRIPOS>BOND
     1    1    6 ar
     2    1    2 ar
     3    1   24 1
     4    2    3 ar
     5    2   25 1
     6    3    4 ar
     7    3   26 1
     8    4    5 ar
     9    4    7 1
    10    5    6 ar
    11    5   27 1
    12    6   28 1
    13    7    8 1
    14    7   14 1
    15    7   29 1
    16    8   13 ar
    17    8    9 ar
    18    9   10 ar
    19    9   30 1
    20   10   11 ar
    21   10   31 1
    22   11   12 ar
    23   11   32 1
    24   12   13 ar
    25   12   33 1
    26   13   34 1
    27   14   15 1
    28   15   16 2
    29   16   21 1
    30   16   17 1
    31   17   18 1
    32   17   35 1
    33   17   36 1
    34   18   23 1
    35   18   19 1
    36   19   20 1
    37   19   37 1
    38   19   38 1
    39   20   21 1
    40   20   39 1
    41   20   40 1
    42   21   22 1
    43   21   41 1
    44   22   23 1
    45   22   42 1
    46   22   43 1
    47   23   44 1
    48   23   45 1
@<TRIPOS>MOLECULE
ZINC38925398
   36    38     0     0     0
SMALL
USER_CHARGES

@<TRIPOS>ATOM
      1 C1         -0.0167    1.3782    0.0096 C.ar      1 <0>        -0.0868
      2 C2          1.1706    2.0858    0.0021 C.ar      1 <0>        -0.1095
      3 C3          2.3780    1.4104   -0.0130 C.ar      1 <0>        -0.0277
      4 C4          2.3961    0.0270   -0.0206 C.ar      1 <0>        -0.1095
      5 C5          1.2082   -0.6795   -0.0130 C.ar      1 <0>        -0.0868
      6 C6          0.0021   -0.0041    0.0020 C.ar      1 <0>        -0.0776
      7 C7         -1.2928   -0.7750    0.0107 C.3       1 <0>        -0.0577
      8 S1         -1.8293   -1.0751   -1.6960 S.3       1 <0>        -0.0448
      9 C8         -3.3347   -1.9732   -1.5179 C.ar      1 <0>         0.1894
     10 C9         -4.0455   -2.3905   -2.6402 C.ar      1 <0>        -0.2711
     11 C10        -5.2279   -3.0968   -2.4460 C.ar      1 <0>         0.4697
     12 N1         -5.6349   -3.3468   -1.2023 N.ar      1 <0>        -0.5819
     13 C11        -4.9341   -2.9350   -0.1656 C.ar      1 <0>         0.3564
     14 N2         -3.8069   -2.2679   -0.3074 N.ar      1 <0>        -0.5717
     15 N3         -5.9724   -3.5338   -3.5308 N.pl3     1 <0>        -0.6029
     16 C12        -7.2865   -4.1892   -3.4600 C.3       1 <0>         0.1167
     17 C13        -7.7134   -4.5175   -4.9062 C.3       1 <0>        -0.1346
     18 C14        -6.3633   -4.5394   -5.6705 C.3       1 <0>        -0.1332
     19 C15        -5.5803   -3.4126   -4.9468 C.3       1 <0>         0.1102
     20 Cl1         3.8696    2.2984   -0.0231 Cl        1 <0>        -0.0655
     21 H1         -0.9592    1.9053    0.0259 H         1 <0>         0.1360
     22 H2          1.1558    3.1656    0.0076 H         1 <0>         0.1375
     23 H3          3.3383   -0.5007   -0.0327 H         1 <0>         0.1375
     24 H4          1.2222   -1.7594   -0.0193 H         1 <0>         0.1360
     25 H5         -1.1447   -1.7283    0.5180 H         1 <0>         0.1057
     26 H6         -2.0551   -0.1989    0.5352 H         1 <0>         0.1058
     27 H7         -3.6882   -2.1711   -3.6355 H         1 <0>         0.1426
     28 H8         -5.2921   -3.1539    0.8295 H         1 <0>         0.1980
     29 H9         -7.2118   -5.1078   -2.8780 H         1 <0>         0.0700
     30 H10        -8.0122   -3.5164   -3.0030 H         1 <0>         0.0679
     31 H11        -8.1990   -5.4922   -4.9532 H         1 <0>         0.0857
     32 H12        -8.3675   -3.7401   -5.3011 H         1 <0>         0.0784
     33 H13        -5.8649   -5.5020   -5.5557 H         1 <0>         0.0789
     34 H14        -6.5067   -4.2986   -6.7239 H         1 <0>         0.0891
     35 H15        -5.8674   -2.4365   -5.3377 H         1 <0>         0.0724
     36 H16        -4.5068   -3.5658   -5.0576 H         1 <0>         0.0776
@<TRIPOS>BOND
     1    1    6 ar
     2    1    2 ar
     3    1   21 1
     4    2    3 ar
     5    2   22 1
     6    3    4 ar
     7    3   20 1
     8    4    5 ar
     9    4   23 1
    10    5    6 ar
    11    5   24 1
    12    6    7 1
    13    7    8 1
    14    7   25 1
    15    7   26 1
    16    8    9 1
    17    9   14 ar
    18    9   10 ar
    19   10   11 ar
    20   10   27 1
    21   11   12 ar
    22   11   15 1
    23   12   13 ar
    24   13   14 ar
    25   13   28 1
    26   15   19 1
    27   15   16 1
    28   16   17 1
    29   16   29 1
    30   16   30 1
    31   17   18 1
    32   17   31 1
    33   17   32 1
    34   18   19 1
    35   18   33 1
    36   18   34 1
    37   19   35 1
    38   19   36 1
@<TRIPOS>MOLECULE
ZINC44823558
   51    52     0     0     0
SMALL
USER_CHARGES

@<TRIPOS>ATOM
      1 C1         -0.4853    1.2444    0.3471 C.3       1 <0>        -0.1519
      2 C2         -0.2449   -0.2589    0.1949 C.3       1 <0>        -0.1256
      3 C3          0.4995   -0.5263   -1.1148 C.3       1 <0>        -0.1216
      4 C4          0.7399   -2.0297   -1.2669 C.3       1 <0>         0.0198
      5 C5         -0.6032   -2.7623   -1.2791 C.3       1 <0>        -0.0967
      6 C6         -1.4477   -2.2596   -2.4518 C.3       1 <0>        -0.1308
      7 C7         -2.7908   -2.9923   -2.4640 C.3       1 <0>        -0.1516
      8 C8          1.4510   -2.2875   -2.5297 C.1       1 <0>         0.2081
      9 N1          1.9998   -2.4865   -3.5043 N.1       1 <0>        -0.4042
     10 C9          1.5717   -2.5248   -0.1119 C.2       1 <0>         0.5358
     11 O1          1.0970   -3.3039    0.6872 O.2       1 <0>        -0.5092
     12 N2          2.8431   -2.1017    0.0331 N.am      1 <0>        -0.6022
     13 C10         3.4015   -1.0689   -0.8531 C.3       1 <0>         0.0937
     14 C11         4.7031   -1.5879   -1.4704 C.3       1 <0>        -0.1374
     15 C12         5.6512   -2.0530   -0.3609 C.3       1 <0>        -0.1147
     16 C13         4.9890   -3.1843    0.4238 C.3       1 <0>        -0.0997
     17 H1          4.7393   -3.9986   -0.2564 H         1 <0>         0.0729
     18 C14         3.7060   -2.6542    1.0828 C.3       1 <0>         0.1521
     19 H2          3.9577   -1.8702    1.7971 H         1 <0>         0.0761
     20 C15         3.0032   -3.8014    1.8071 C.3       1 <0>        -0.1112
     21 C16         3.9309   -4.3461    2.8971 C.3       1 <0>        -0.1254
     22 C17         5.2317   -4.8478    2.2691 C.3       1 <0>        -0.1227
     23 C18         5.9235   -3.7037    1.5154 C.3       1 <0>        -0.1108
     24 H3          0.4717    1.7660    0.3600 H         1 <0>         0.0544
     25 H4         -1.0833    1.6033   -0.4906 H         1 <0>         0.0570
     26 H5         -1.0156    1.4350    1.2801 H         1 <0>         0.0592
     27 H6          0.3532   -0.6178    1.0326 H         1 <0>         0.0664
     28 H7         -1.2019   -0.7804    0.1819 H         1 <0>         0.0758
     29 H8         -0.0985   -0.1674   -1.9524 H         1 <0>         0.0898
     30 H9          1.4565   -0.0048   -1.1018 H         1 <0>         0.0835
     31 H10        -0.4319   -3.8333   -1.3875 H         1 <0>         0.0783
     32 H11        -1.1297   -2.5714   -0.3440 H         1 <0>         0.0979
     33 H12        -1.6190   -1.1886   -2.3434 H         1 <0>         0.0717
     34 H13        -0.9211   -2.4506   -3.3868 H         1 <0>         0.0593
     35 H14        -3.3173   -2.8013   -1.5289 H         1 <0>         0.0586
     36 H15        -3.3924   -2.6342   -3.2994 H         1 <0>         0.0570
     37 H16        -2.6195   -4.0633   -2.5723 H         1 <0>         0.0555
     38 H17         2.6873   -0.8432   -1.6450 H         1 <0>         0.0888
     39 H18         3.6059   -0.1663   -0.2773 H         1 <0>         0.0789
     40 H19         4.4818   -2.4248   -2.1327 H         1 <0>         0.0671
     41 H20         5.1771   -0.7898   -2.0416 H         1 <0>         0.0787
     42 H21         6.5807   -2.4118   -0.8028 H         1 <0>         0.0690
     43 H22         5.8633   -1.2202    0.3097 H         1 <0>         0.0671
     44 H23         2.0821   -3.4361    2.2611 H         1 <0>         0.0953
     45 H24         2.7714   -4.5941    1.0958 H         1 <0>         0.0677
     46 H25         4.1554   -3.5535    3.6110 H         1 <0>         0.0603
     47 H26         3.4376   -5.1689    3.4146 H         1 <0>         0.0659
     48 H27         5.8920   -5.2202    3.0524 H         1 <0>         0.0631
     49 H28         5.0092   -5.6546    1.5709 H         1 <0>         0.0603
     50 H29         6.8469   -4.0655    1.0631 H         1 <0>         0.0664
     51 H30         6.1495   -2.8992    2.2153 H         1 <0>         0.0645
@<TRIPOS>BOND
     1    1    2 1
     2    1   24 1
     3    1   25 1
     4    1   26 1
     5    2    3 1
     6    2   27 1
     7    2   28 1
     8    3    4 1
     9    3   29 1
    10    3   30 1
    11    4    5 1
    12    4    8 1
    13    4   10 1
    14    5    6 1
    15    5   31 1
    16    5   32 1
    17    6    7 1
    18    6   33 1
    19    6   34 1
    20    7   35 1
    21    7   36 1
    22    7   37 1
    23    8    9 3
    24   10   11 2
    25   10   12 am
    26   12   18 1
    27   12   13 1
    28   13   14 1
    29   13   38 1
    30   13   39 1
    31   14   15 1
    32   14   40 1
    33   14   41 1
    34   15   16 1
    35   15   42 1
    36   15   43 1
    37   16   17 1
    38   16   23 1
    39   16   18 1
    40   18   19 1
    41   18   20 1
    42   20   21 1
    43   20   44 1
    44   20   45 1
    45   21   22 1
    46   21   46 1
    47   21   47 1
    48   22   23 1
    49   22   48 1
    50   22   49 1
    51   23   50 1
    52   23   51 1
@<TRIPOS>MOLECULE
ZINC20001464
   30    31     0     0     0
SMALL
USER_CHARGES

@<TRIPOS>ATOM
      1 C1         -0.0187    1.5258    0.0104 C.3       1 <0>        -0.1800
      2 C2          0.0021   -0.0041    0.0020 C.3       1 <0>         0.0942
      3 N1         -1.3723   -0.5112    0.0124 N.pl3     1 <0>        -0.9322
      4 C3         -2.0762   -0.6476   -1.1879 C.ar      1 <0>         0.1602
      5 C4         -3.4645   -0.6092   -1.1883 C.ar      1 <0>        -0.1318
      6 C5         -4.1578   -0.7438   -2.3753 C.ar      1 <0>        -0.1138
      7 C6         -3.4697   -0.9169   -3.5643 C.ar      1 <0>         0.0784
      8 C7         -2.0856   -0.9555   -3.5664 C.ar      1 <0>        -0.1210
      9 C8         -1.3881   -0.8161   -2.3824 C.ar      1 <0>        -0.1154
     10 F1         -4.1498   -1.0488   -4.7241 F         1 <0>        -0.1374
     11 S1         -2.0922   -0.9227    1.4458 S.o2      1 <0>         2.7191
     12 O1         -3.1158   -1.8572    1.1326 O.2       1 <0>        -0.9269
     13 O2         -1.0428   -1.2191    2.3570 O.2       1 <0>        -0.9309
     14 C9         -2.8976    0.5202    2.0575 C.2       1 <0>        -0.7710
     15 C10        -4.1655    0.9463    1.8405 C.2       1 <0>         0.0063
     16 C11        -4.5878    2.1235    2.4302 C.2       1 <0>        -0.1742
     17 C12        -3.7194    2.8167    3.2085 C.2       1 <0>        -0.0828
     18 S2         -2.2571    1.7956    3.1299 S.3       1 <0>         0.2308
     19 Cl1        -3.9679    4.3065    4.0644 Cl        1 <0>         0.0402
     20 H1          1.0039    1.9031    0.0027 H         1 <0>         0.0803
     21 H2         -0.5459    1.8868   -0.8726 H         1 <0>         0.0672
     22 H3         -0.5289    1.8773    0.9072 H         1 <0>         0.0576
     23 H4          0.5123   -0.3556   -0.8948 H         1 <0>         0.0987
     24 H5          0.5293   -0.3651    0.8851 H         1 <0>         0.1063
     25 H6         -4.0016   -0.4746   -0.2610 H         1 <0>         0.1344
     26 H7         -5.2374   -0.7144   -2.3759 H         1 <0>         0.1442
     27 H8         -1.5509   -1.0909   -4.4949 H         1 <0>         0.1431
     28 H9         -0.3084   -0.8417   -2.3850 H         1 <0>         0.1422
     29 H10        -4.8363    0.3749    1.2160 H         1 <0>         0.1570
     30 H11        -5.5931    2.4857    2.2733 H         1 <0>         0.1573
@<TRIPOS>BOND
     1    1    2 1
     2    1   20 1
     3    1   21 1
     4    1   22 1
     5    2    3 1
     6    2   23 1
     7    2   24 1
     8    3    4 1
     9    3   11 1
    10    4    9 ar
    11    4    5 ar
    12    5    6 ar
    13    5   25 1
    14    6    7 ar
    15    6   26 1
    16    7    8 ar
    17    7   10 1
    18    8    9 ar
    19    8   27 1
    20    9   28 1
    21   11   12 2
    22   11   13 2
    23   11   14 1
    24   14   18 1
    25   14   15 2
    26   15   16 1
    27   15   29 1
    28   16   17 2
    29   16   30 1
    30   17   18 1
    31   17   19 1
@<TRIPOS>MOLECULE
ZINC66255870
   32    34     0     0     0
SMALL
USER_CHARGES

@<TRIPOS>ATOM
      1 C1         -0.0823    1.0831    1.3390 C.ar      1 <0>        -0.0968
      2 C2          0.9881    1.8290    0.8776 C.ar      1 <0>        -0.1219
      3 C3          2.1913    1.2151    0.5986 C.ar      1 <0>        -0.0658
      4 C4          2.3280   -0.1625    0.7832 C.ar      1 <0>        -0.0280
      5 C5          1.2437   -0.9090    1.2496 C.ar      1 <0>        -0.0932
      6 C6          0.0461   -0.2822    1.5241 C.ar      1 <0>        -0.1179
      7 C7          3.6131   -0.8268    0.4861 C.2       1 <0>         0.0807
      8 N1          4.7353   -0.2782    0.0461 N.2       1 <0>        -0.5275
      9 C8          5.8040   -0.9919   -0.1752 C.2       1 <0>         0.1297
     10 C9          5.6936   -2.3637    0.0789 C.2       1 <0>        -0.2748
     11 S1          3.9987   -2.4583    0.6339 S.3       1 <0>         0.2689
     12 C10         6.6522   -3.3831   -0.0589 C.2       1 <0>         0.1352
     13 C11         6.2910   -4.6054   -0.6056 C.2       1 <0>        -0.1569
     14 C12         7.2023   -5.7089   -0.5570 C.1       1 <0>         0.2453
     15 N2          7.9253   -6.5843   -0.5185 N.1       1 <0>        -0.3833
     16 C13         4.9736   -4.7681   -1.2343 C.2       1 <0>         0.4836
     17 O1          4.2460   -3.8017   -1.3835 O.2       1 <0>        -0.4295
     18 C14         4.5338   -6.0932   -1.6825 C.2       1 <0>        -0.2888
     19 C15         3.3446   -6.4584   -2.2973 C.2       1 <0>        -0.0594
     20 C16         3.2165   -7.7918   -2.6036 C.2       1 <0>        -0.1909
     21 C17         4.2293   -8.6394   -2.2950 C.2       1 <0>        -0.2233
     22 S2          5.3906   -7.6535   -1.5867 S.3       1 <0>         0.2298
     23 H1         -1.0209    1.5695    1.5598 H         1 <0>         0.1296
     24 H2          0.8809    2.8942    0.7353 H         1 <0>         0.1319
     25 H3          3.0257    1.7982    0.2378 H         1 <0>         0.1366
     26 H4          1.3425   -1.9747    1.3942 H         1 <0>         0.1265
     27 H5         -0.7932   -0.8582    1.8848 H         1 <0>         0.1326
     28 H6          6.7215   -0.5497   -0.5342 H         1 <0>         0.1846
     29 H7          7.6699   -3.2142    0.2609 H         1 <0>         0.1644
     30 H8          2.5692   -5.7406   -2.5205 H         1 <0>         0.1505
     31 H9          2.3216   -8.1599   -3.0832 H         1 <0>         0.1390
     32 H10         4.2798   -9.7041   -2.4693 H         1 <0>         0.1893
@<TRIPOS>BOND
     1    1    6 ar
     2    1    2 ar
     3    1   23 1
     4    2    3 ar
     5    2   24 1
     6    3    4 ar
     7    3   25 1
     8    4    5 ar
     9    4    7 1
    10    5    6 ar
    11    5   26 1
    12    6   27 1
    13    7   11 1
    14    7    8 2
    15    8    9 1
    16    9   10 2
    17    9   28 1
    18   10   11 1
    19   10   12 1
    20   12   13 2
    21   12   29 1
    22   13   14 1
    23   13   16 1
    24   14   15 3
    25   16   17 2
    26   16   18 1
    27   18   22 1
    28   18   19 2
    29   19   20 1
    30   19   30 1
    31   20   21 2
    32   20   31 1
    33   21   22 1
    34   21   32 1
@<TRIPOS>MOLECULE
ZINC05109060
   45    49     0     0     0
SMALL
USER_CHARGES
ethyl-(indolin-1-ylcarbonylmethyl)BLAHone
@<TRIPOS>ATOM
      1 C1          0.8291   -3.7897    3.6900 C.3       1 <0>        -0.1411
      2 C2          0.6403   -4.8255    2.5798 C.3       1 <0>        -0.0643
      3 C3          0.7438   -4.1479    1.2377 C.2       1 <0>         0.3263
      4 N1          0.9676   -2.8790    1.1891 N.2       1 <0>        -0.2552
      5 N2          1.0691   -2.1835   -0.0194 N.am      1 <0>        -0.4284
      6 C4          0.9441   -2.8426   -1.1935 C.2       1 <0>         0.5695
      7 O1          1.0348   -2.2545   -2.2566 O.2       1 <0>        -0.4983
      8 C5          0.6964   -4.2864   -1.1475 C.2       1 <0>        -0.0151
      9 N3          0.6031   -4.9018    0.0897 N.pl3     1 <0>        -0.4003
     10 C6          0.3678   -6.2601   -0.0959 C.2       1 <0>         0.0634
     11 C7          0.1780   -7.4097    0.6860 C.2       1 <0>        -0.1461
     12 C8         -0.0330   -8.6032    0.0947 C.2       1 <0>        -0.1380
     13 S1          0.0199   -8.1942   -1.6418 S.3       1 <0>         0.1170
     14 C9          0.3208   -6.4526   -1.4823 C.2       1 <0>        -0.1861
     15 C10         0.5230   -5.2389   -2.1230 C.2       1 <0>        -0.0274
     16 C11         1.3172   -0.7397   -0.0139 C.3       1 <0>         0.1186
     17 C12         0.0021   -0.0041    0.0020 C.2       1 <0>         0.5132
     18 O2         -1.0399   -0.6247    0.0082 O.2       1 <0>        -0.5022
     19 N4         -0.0162    1.3436    0.0094 N.am      1 <0>        -0.5501
     20 C13        -1.2282    2.1672    0.0190 C.3       1 <0>         0.1075
     21 C14        -0.7277    3.6208    0.0270 C.3       1 <0>        -0.0874
     22 C15         0.7799    3.5046    0.0126 C.ar      1 <0>        -0.1303
     23 C16         1.1185    2.1607    0.0030 C.ar      1 <0>         0.1391
     24 C17         2.4674    1.8018   -0.0107 C.ar      1 <0>        -0.1634
     25 C18         3.4455    2.7737   -0.0141 C.ar      1 <0>        -0.0816
     26 C19         3.0972    4.1116   -0.0044 C.ar      1 <0>        -0.1384
     27 C20         1.7632    4.4749    0.0087 C.ar      1 <0>        -0.0703
     28 H1          0.7542   -4.2798    4.6607 H         1 <0>         0.0705
     29 H2          1.8108   -3.3264    3.5916 H         1 <0>         0.0671
     30 H3          0.0566   -3.0250    3.6086 H         1 <0>         0.0665
     31 H4         -0.3414   -5.2887    2.6782 H         1 <0>         0.1013
     32 H5          1.4128   -5.5902    2.6612 H         1 <0>         0.1016
     33 H6          0.2010   -7.3386    1.7634 H         1 <0>         0.1401
     34 H7         -0.1939   -9.5661    0.5566 H         1 <0>         0.2014
     35 H8          0.5408   -5.0732   -3.1901 H         1 <0>         0.1695
     36 H9          1.8770   -0.4639   -0.9076 H         1 <0>         0.1360
     37 H10         1.8933   -0.4734    0.8723 H         1 <0>         0.1333
     38 H11        -1.8230    1.9750   -0.8739 H         1 <0>         0.0855
     39 H12        -1.8148    1.9662    0.9155 H         1 <0>         0.0855
     40 H13        -1.0608    4.1360    0.9280 H         1 <0>         0.0949
     41 H14        -1.0770    4.1465   -0.8617 H         1 <0>         0.0946
     42 H15         2.7462    0.7584   -0.0183 H         1 <0>         0.1293
     43 H16         4.4872    2.4888   -0.0240 H         1 <0>         0.1326
     44 H17         3.8651    4.8710   -0.0068 H         1 <0>         0.1306
     45 H18         1.4893    5.5195    0.0163 H         1 <0>         0.1290
@<TRIPOS>BOND
     1    1    2 1
     2    1   28 1
     3    1   29 1
     4    1   30 1
     5    2    3 1
     6    2   31 1
     7    2   32 1
     8    3    9 1
     9    3    4 2
    10    4    5 1
    11    5    6 am
    12    5   16 1
    13    6    7 2
    14    6    8 1
    15    8   15 2
    16    8    9 1
    17    9   10 1
    18   10   14 2
    19   10   11 1
    20   11   12 2
    21   11   33 1
    22   12   13 1
    23   12   34 1
    24   13   14 1
    25   14   15 1
    26   15   35 1
    27   16   17 1
    28   16   36 1
    29   16   37 1
    30   17   18 2
    31   17   19 am
    32   19   23 1
    33   19   20 1
    34   20   21 1
    35   20   38 1
    36   20   39 1
    37   21   22 1
    38   21   40 1
    39   21   41 1
    40   22   27 ar
    41   22   23 ar
    42   23   24 ar
    43   24   25 ar
    44   24   42 1
    45   25   26 ar
    46   25   43 1
    47   26   27 ar
    48   26   44 1
    49   27   45 1
@<TRIPOS>MOLECULE
ZINC02917267
   48    52     0     0     0
SMALL
USER_CHARGES

@<TRIPOS>ATOM
      1 C1         -0.6753    1.2902   -0.0309 C.3       1 <0>        -0.0981
      2 C2         -0.1062   -0.1051   -0.0166 C.2       1 <0>        -0.1055
      3 C3          0.2063   -0.7300   -1.1851 C.2       1 <0>        -0.0370
      4 C4          0.7359   -2.0290   -1.1569 C.2       1 <0>        -0.1694
      5 C5          0.9338   -2.6554    0.0232 C.2       1 <0>         0.0978
      6 N1          0.6245   -2.0396    1.2011 N.am      1 <0>        -0.4469
      7 C6          0.1117   -0.7700    1.2067 C.2       1 <0>         0.4271
      8 N2         -0.1927   -0.1478    2.3424 N.2       1 <0>        -0.5399
      9 C7         -0.0073   -0.7290    3.5246 C.2       1 <0>         0.3484
     10 C8          0.5244   -2.0356    3.5775 C.2       1 <0>        -0.3055
     11 C9          0.8349   -2.6945    2.3651 C.2       1 <0>         0.5623
     12 O1          1.2950   -3.8228    2.3700 O.2       1 <0>        -0.5085
     13 C10         0.6125   -2.3963    4.9346 C.2       1 <0>        -0.0669
     14 C11         0.1511   -1.3461    5.6712 C.2       1 <0>        -0.0219
     15 N3         -0.2283   -0.3258    4.8112 N.pl3     1 <0>        -0.4084
     16 C12        -0.7756    0.9714    5.2162 C.3       1 <0>         0.0679
     17 C13         0.0688   -1.3023    7.1332 C.2       1 <0>         0.5976
     18 O2          0.0783   -0.2312    7.7115 O.2       1 <0>        -0.5353
     19 N4         -0.0175   -2.4479    7.8379 N.am      1 <0>        -0.5972
     20 C14        -0.1327   -2.4370    9.3056 C.3       1 <0>         0.1149
     21 C15        -1.4915   -3.0305    9.6745 C.3       1 <0>        -0.0975
     22 C16        -1.7389   -4.3115    8.9224 C.ar      1 <0>        -0.0713
     23 C17        -2.6921   -5.1847    9.4329 C.ar      1 <0>        -0.1190
     24 C18        -2.9741   -6.3706    8.7880 C.ar      1 <0>        -0.1160
     25 C19        -2.3053   -6.6955    7.6223 C.ar      1 <0>        -0.1185
     26 C20        -1.3562   -5.8323    7.1151 C.ar      1 <0>        -0.1115
     27 C21        -1.0672   -4.6409    7.7667 C.ar      1 <0>        -0.0973
     28 C22        -0.0064   -3.7552    7.1729 C.3       1 <0>         0.1181
     29 H1          0.1381    2.0148    0.0073 H         1 <0>         0.0769
     30 H2         -1.2512    1.4384   -0.9444 H         1 <0>         0.0734
     31 H3         -1.3244    1.4268    0.8341 H         1 <0>         0.0828
     32 H4          0.0471   -0.2288   -2.1285 H         1 <0>         0.1524
     33 H5          0.9855   -2.5292   -2.0809 H         1 <0>         0.1598
     34 H6          1.3413   -3.6555    0.0348 H         1 <0>         0.1812
     35 H7          0.9792   -3.3352    5.3225 H         1 <0>         0.1707
     36 H8         -1.8507    0.8798    5.3708 H         1 <0>         0.0767
     37 H9         -0.3012    1.2923    6.1436 H         1 <0>         0.1061
     38 H10        -0.5822    1.7070    4.4355 H         1 <0>         0.0936
     39 H11         0.6637   -3.0395    9.7425 H         1 <0>         0.0805
     40 H12        -0.0654   -1.4131    9.6733 H         1 <0>         0.1030
     41 H13        -1.5155   -3.2330   10.7452 H         1 <0>         0.0905
     42 H14        -2.2746   -2.3133    9.4285 H         1 <0>         0.0816
     43 H15        -3.2162   -4.9324   10.3428 H         1 <0>         0.1226
     44 H16        -3.7152   -7.0440    9.1927 H         1 <0>         0.1235
     45 H17        -2.5252   -7.6209    7.1108 H         1 <0>         0.1250
     46 H18        -0.8338   -6.0854    6.2044 H         1 <0>         0.1259
     47 H19        -0.1999   -3.6223    6.1084 H         1 <0>         0.1213
     48 H20         0.9689   -4.2227    7.3080 H         1 <0>         0.0898
@<TRIPOS>BOND
     1    1    2 1
     2    1   29 1
     3    1   30 1
     4    1   31 1
     5    2    7 1
     6    2    3 2
     7    3    4 1
     8    3   32 1
     9    4    5 2
    10    4   33 1
    11    5    6 1
    12    5   34 1
    13    6   11 am
    14    6    7 1
    15    7    8 2
    16    8    9 1
    17    9   15 1
    18    9   10 2
    19   10   11 1
    20   10   13 1
    21   11   12 2
    22   13   14 2
    23   13   35 1
    24   14   15 1
    25   14   17 1
    26   15   16 1
    27   16   36 1
    28   16   37 1
    29   16   38 1
    30   17   18 2
    31   17   19 am
    32   19   28 1
    33   19   20 1
    34   20   21 1
    35   20   39 1
    36   20   40 1
    37   21   22 1
    38   21   41 1
    39   21   42 1
    40   22   27 ar
    41   22   23 ar
    42   23   24 ar
    43   23   43 1
    44   24   25 ar
    45   24   44 1
    46   25   26 ar
    47   25   45 1
    48   26   27 ar
    49   26   46 1
    50   27   28 1
    51   28   47 1
    52   28   48 1
@<TRIPOS>MOLECULE
ZINC45625725
   38    39     0     0     0
SMALL
USER_CHARGES

@<TRIPOS>ATOM
      1 C1         -0.2382    1.9386   -0.1591 C.3       1 <0>        -0.1486
      2 C2          0.0588    0.4426   -0.0379 C.3       1 <0>        -0.1281
      3 C3         -1.2566   -0.3315    0.0684 C.3       1 <0>         0.1078
      4 H1         -1.8972   -0.0848   -0.7782 H         1 <0>         0.1129
      5 C4         -0.9701   -1.8374    0.0775 C.3       1 <0>         0.0532
      6 O1         -0.2878   -2.1795    1.2863 O.3       1 <0>        -0.3681
      7 C5         -1.0441   -1.9351    2.4746 C.3       1 <0>         0.0758
      8 H2         -1.9840   -2.4851    2.4275 H         1 <0>         0.0645
      9 C6         -1.3344   -0.4341    2.5883 C.3       1 <0>         0.0660
     10 N1         -1.9381    0.0196    1.3245 N.am      1 <0>        -0.5976
     11 C7         -3.0808    0.7342    1.3175 C.2       1 <0>         0.5617
     12 O2         -3.5245    1.1607    0.2693 O.2       1 <0>        -0.4943
     13 C8         -3.7944    0.9990    2.5843 C.ar      1 <0>        -0.1012
     14 C9         -3.1168    1.5650    3.6658 C.ar      1 <0>        -0.0254
     15 C10        -3.7887    1.8101    4.8450 C.ar      1 <0>        -0.0400
     16 C11        -5.1320    1.4964    4.9584 C.ar      1 <0>        -0.0294
     17 C12        -5.8101    0.9352    3.8918 C.ar      1 <0>        -0.0894
     18 C13        -5.1512    0.6897    2.7031 C.ar      1 <0>        -0.0121
     19 Br1        -6.0816   -0.0706    1.2429 Br        1 <0>         0.0112
     20 N2         -3.0713    2.4097    5.9925 N.pl3     1 <0>         0.0301
     21 O3         -1.8978    2.6839    5.8953 O.2       1 <0>        -0.1466
     22 O4         -3.6587    2.6252    7.0269 O.3       1 <0>        -0.1411
     23 C14        -0.2430   -2.3956    3.6940 C.3       1 <0>        -0.1467
     24 H3          0.6990    2.4901   -0.2349 H         1 <0>         0.0576
     25 H4         -0.8389    2.1187   -1.0506 H         1 <0>         0.0577
     26 H5         -0.7861    2.2728    0.7219 H         1 <0>         0.0471
     27 H6          0.6068    0.1085   -0.9189 H         1 <0>         0.0796
     28 H7          0.6596    0.2625    0.8536 H         1 <0>         0.0724
     29 H8         -1.9097   -2.3871    0.0217 H         1 <0>         0.0583
     30 H9         -0.3458   -2.0944   -0.7782 H         1 <0>         0.1124
     31 H10        -2.0271   -0.2555    3.4107 H         1 <0>         0.0897
     32 H11        -0.4051    0.1070    2.7662 H         1 <0>         0.0901
     33 H12        -2.0685    1.8101    3.5793 H         1 <0>         0.1667
     34 H13        -5.6530    1.6906    5.8843 H         1 <0>         0.1707
     35 H14        -6.8582    0.6926    3.9871 H         1 <0>         0.1673
     36 H15         0.6958   -1.8439    3.7415 H         1 <0>         0.0701
     37 H16        -0.8203   -2.2089    4.5996 H         1 <0>         0.0733
     38 H17        -0.0339   -3.4620    3.6098 H         1 <0>         0.0725
@<TRIPOS>BOND
     1    1    2 1
     2    1   24 1
     3    1   25 1
     4    1   26 1
     5    2    3 1
     6    2   27 1
     7    2   28 1
     8    3    4 1
     9    3   10 1
    10    3    5 1
    11    5    6 1
    12    5   29 1
    13    5   30 1
    14    6    7 1
    15    7    8 1
    16    7    9 1
    17    7   23 1
    18    9   10 1
    19    9   31 1
    20    9   32 1
    21   10   11 am
    22   11   12 2
    23   11   13 1
    24   13   18 ar
    25   13   14 ar
    26   14   15 ar
    27   14   33 1
    28   15   16 ar
    29   15   20 1
    30   16   17 ar
    31   16   34 1
    32   17   18 ar
    33   17   35 1
    34   18   19 1
    35   20   21 2
    36   20   22 1
    37   23   36 1
    38   23   37 1
    39   23   38 1
@<TRIPOS>MOLECULE
ZINC60467859
   46    49     0     0     0
SMALL
USER_CHARGES

@<TRIPOS>ATOM
      1 C1          0.5103    1.0977   -0.5077 C.3       1 <0>        -0.1102
      2 C2          0.3826   -0.3915   -0.3149 C.2       1 <0>         0.2677
      3 C3         -0.8793   -0.9797   -0.2876 C.2       1 <0>        -0.3315
      4 C4         -0.9780   -2.3463   -0.1099 C.2       1 <0>         0.4939
      5 N1          0.1685   -3.0734    0.0331 N.pl3     1 <0>        -0.3630
      6 C5          1.3850   -2.4520   -0.0004 C.2       1 <0>         0.4904
      7 N2          1.4650   -1.1284   -0.1786 N.2       1 <0>        -0.5079
      8 N3          2.3098   -3.3919    0.1624 N.2       1 <0>        -0.5373
      9 C6          1.7263   -4.5765    0.2966 C.2       1 <0>         0.2637
     10 N4          0.4251   -4.4369    0.2253 N.2       1 <0>        -0.3588
     11 N5         -2.2089   -2.9628   -0.0771 N.pl3     1 <0>        -0.5928
     12 C7         -2.3182   -4.4293   -0.0504 C.3       1 <0>         0.0963
     13 C8         -3.2830   -4.8658   -1.1581 C.3       1 <0>         0.0415
     14 N6         -4.5543   -4.1453   -1.0077 N.3       1 <0>        -0.5306
     15 C9         -4.3694   -2.6976   -1.1750 C.3       1 <0>         0.0357
     16 C10        -3.4490   -2.1722   -0.0619 C.3       1 <0>         0.1218
     17 C11        -5.5641   -4.6586   -1.9430 C.3       1 <0>         0.1249
     18 C12        -6.8940   -3.9417   -1.7016 C.3       1 <0>        -0.1458
     19 C13        -5.7445   -6.1388   -1.7248 C.ar      1 <0>        -0.0836
     20 C14        -5.8858   -6.6357   -0.4424 C.ar      1 <0>        -0.0586
     21 C15        -6.0518   -7.9927   -0.2404 C.ar      1 <0>        -0.1434
     22 C16        -6.0767   -8.8554   -1.3229 C.ar      1 <0>         0.1121
     23 C17        -5.9351   -8.3569   -2.6078 C.ar      1 <0>        -0.0748
     24 C18        -5.7743   -6.9976   -2.8073 C.ar      1 <0>        -0.0782
     25 Cl1        -5.9659   -9.4367   -3.9668 Cl        1 <0>        -0.0458
     26 F1         -6.2385  -10.1822   -1.1265 F         1 <0>        -0.1249
     27 H1          1.5644    1.3750   -0.5070 H         1 <0>         0.0881
     28 H2          0.0608    1.3806   -1.4596 H         1 <0>         0.0915
     29 H3         -0.0020    1.6144    0.3039 H         1 <0>         0.0923
     30 H4         -1.7677   -0.3766   -0.4033 H         1 <0>         0.1663
     31 H5          2.2447   -5.5126    0.4424 H         1 <0>         0.2307
     32 H6         -1.3376   -4.8728   -0.2231 H         1 <0>         0.1297
     33 H7         -2.7029   -4.7502    0.9177 H         1 <0>         0.0793
     34 H8         -2.8478   -4.6364   -2.1307 H         1 <0>         0.0396
     35 H9         -3.4617   -5.9384   -1.0829 H         1 <0>         0.0941
     36 H10        -3.9190   -2.4984   -2.1475 H         1 <0>         0.0452
     37 H11        -5.3360   -2.1978   -1.1122 H         1 <0>         0.1023
     38 H12        -3.9403   -2.2803    0.9051 H         1 <0>         0.0891
     39 H13        -3.2164   -1.1227   -0.2423 H         1 <0>         0.0993
     40 H14        -5.2355   -4.4796   -2.9667 H         1 <0>         0.0555
     41 H15        -6.7635   -2.8711   -1.8594 H         1 <0>         0.0646
     42 H16        -7.6433   -4.3225   -2.3956 H         1 <0>         0.0667
     43 H17        -7.2227   -4.1206   -0.6779 H         1 <0>         0.0703
     44 H18        -5.8661   -5.9629    0.4022 H         1 <0>         0.1468
     45 H19        -6.1618   -8.3802    0.7617 H         1 <0>         0.1469
     46 H20        -5.6683   -6.6078   -3.8089 H         1 <0>         0.1410
@<TRIPOS>BOND
     1    1    2 1
     2    1   27 1
     3    1   28 1
     4    1   29 1
     5    2    7 2
     6    2    3 1
     7    3    4 2
     8    3   30 1
     9    4    5 1
    10    4   11 1
    11    5   10 1
    12    5    6 1
    13    6    7 1
    14    6    8 2
    15    8    9 1
    16    9   10 2
    17    9   31 1
    18   11   16 1
    19   11   12 1
    20   12   13 1
    21   12   32 1
    22   12   33 1
    23   13   14 1
    24   13   34 1
    25   13   35 1
    26   14   15 1
    27   14   17 1
    28   15   16 1
    29   15   36 1
    30   15   37 1
    31   16   38 1
    32   16   39 1
    33   17   18 1
    34   17   19 1
    35   17   40 1
    36   18   41 1
    37   18   42 1
    38   18   43 1
    39   19   24 ar
    40   19   20 ar
    41   20   21 ar
    42   20   44 1
    43   21   22 ar
    44   21   45 1
    45   22   23 ar
    46   22   26 1
    47   23   24 ar
    48   23   25 1
    49   24   46 1
@<TRIPOS>MOLECULE
ZINC66937757
   42    45     0     0     0
SMALL
USER_CHARGES

@<TRIPOS>ATOM
      1 C1         -0.0167    1.3777    0.0096 C.ar      1 <0>        -0.1131
      2 C2          1.1697    2.0876    0.0021 C.ar      1 <0>        -0.1370
      3 C3          2.3783    1.4178   -0.0143 C.ar      1 <0>        -0.1000
      4 C4          2.4042    0.0310   -0.0230 C.ar      1 <0>         0.0700
      5 C5          1.2117   -0.6826   -0.0129 C.ar      1 <0>         0.0591
      6 C6          0.0021   -0.0041    0.0020 C.ar      1 <0>        -0.1102
      7 O1          1.2145   -2.0436   -0.0133 O.3       1 <0>        -0.3040
      8 C7          2.4336   -2.6847   -0.4041 C.3       1 <0>         0.0182
      9 C8          3.5941   -1.9974    0.3280 C.3       1 <0>         0.0201
     10 O2          3.6022   -0.6147   -0.0433 O.3       1 <0>        -0.3002
     11 C9          3.6695    2.1948   -0.0233 C.3       1 <0>         0.2009
     12 H1          4.3892    1.7099   -0.6829 H         1 <0>         0.1019
     13 C10         4.2420    2.2781    1.4074 C.3       1 <0>        -0.1143
     14 C11         4.8141    3.7190    1.4694 C.3       1 <0>        -0.1276
     15 C12         3.7866    4.4988    0.6115 C.3       1 <0>         0.1105
     16 N1          3.4219    3.5706   -0.4787 N.pl3     1 <0>        -1.0054
     17 S1          2.8331    4.0043   -1.9644 S.o2      1 <0>         2.7129
     18 O3          3.2624    5.3387   -2.1977 O.2       1 <0>        -0.9423
     19 O4          3.1434    2.9382   -2.8512 O.2       1 <0>        -0.9390
     20 C13         1.0767    4.0559   -1.8340 C.ar      1 <0>        -0.7543
     21 C14         0.3202    2.9219   -2.0904 C.ar      1 <0>         0.0686
     22 C15        -1.0580    3.0083   -1.9757 C.ar      1 <0>        -0.1838
     23 C16        -1.6298    4.2149   -1.6116 C.ar      1 <0>         0.2262
     24 N2         -0.8781    5.2732   -1.3753 N.ar      1 <0>        -0.4902
     25 C17         0.4368    5.2247   -1.4696 C.ar      1 <0>         0.2239
     26 Cl1        -3.3552    4.3375   -1.4646 Cl        1 <0>        -0.0113
     27 H2         -0.9596    1.9040    0.0259 H         1 <0>         0.1340
     28 H3          1.1518    3.1674    0.0087 H         1 <0>         0.1347
     29 H4         -0.9261   -0.5562    0.0079 H         1 <0>         0.1392
     30 H5          2.3988   -3.7390   -0.1298 H         1 <0>         0.1250
     31 H6          2.5703   -2.5889   -1.4813 H         1 <0>         0.0812
     32 H7          3.4543   -2.0880    1.4052 H         1 <0>         0.0802
     33 H8          4.5372   -2.4612    0.0389 H         1 <0>         0.1261
     34 H9          3.4525    2.1444    2.1470 H         1 <0>         0.0787
     35 H10         5.0336    1.5424    1.5494 H         1 <0>         0.0879
     36 H11         4.8287    4.0897    2.4943 H         1 <0>         0.0883
     37 H12         5.8084    3.7640    1.0251 H         1 <0>         0.0817
     38 H13         2.9088    4.7505    1.2066 H         1 <0>         0.0714
     39 H14         4.2408    5.4016    0.2032 H         1 <0>         0.0913
     40 H15         0.7941    1.9936   -2.3732 H         1 <0>         0.1596
     41 H16        -1.6781    2.1453   -2.1682 H         1 <0>         0.1589
     42 H17         1.0196    6.1104   -1.2641 H         1 <0>         0.1823
@<TRIPOS>BOND
     1    1    6 ar
     2    1    2 ar
     3    1   27 1
     4    2    3 ar
     5    2   28 1
     6    3    4 ar
     7    3   11 1
     8    4   10 1
     9    4    5 ar
    10    5    6 ar
    11    5    7 1
    12    6   29 1
    13    7    8 1
    14    8    9 1
    15    8   30 1
    16    8   31 1
    17    9   10 1
    18    9   32 1
    19    9   33 1
    20   11   12 1
    21   11   16 1
    22   11   13 1
    23   13   14 1
    24   13   34 1
    25   13   35 1
    26   14   15 1
    27   14   36 1
    28   14   37 1
    29   15   16 1
    30   15   38 1
    31   15   39 1
    32   16   17 1
    33   17   18 2
    34   17   19 2
    35   17   20 1
    36   20   25 ar
    37   20   21 ar
    38   21   22 ar
    39   21   40 1
    40   22   23 ar
    41   22   41 1
    42   23   24 ar
    43   23   26 1
    44   24   25 ar
    45   25   42 1
@<TRIPOS>MOLECULE
ZINC35369695
   28    30     0     0     0
SMALL
USER_CHARGES

@<TRIPOS>ATOM
      1 C1         -0.0165    1.3646    0.0095 C.2       1 <0>        -0.0519
      2 C2          1.2671    1.7717   -0.0005 C.2       1 <0>        -0.0253
      3 N1          2.0482    0.6814   -0.0138 N.2       1 <0>        -0.4645
      4 C3          1.2973   -0.3859   -0.0124 C.2       1 <0>         0.2077
      5 N2          0.0021   -0.0041    0.0020 N.pl3     1 <0>        -0.5658
      6 H1         -0.7708   -0.5902    0.0065 H         1 <0>         0.4184
      7 C4          1.7934   -1.8089   -0.0255 C.3       1 <0>        -0.0788
      8 C5          2.7170   -2.0080   -1.1996 C.2       1 <0>         0.4402
      9 O1          2.9499   -1.0841   -1.9526 O.2       1 <0>        -0.4198
     10 C6          3.3119   -3.2691   -1.4241 C.2       1 <0>        -0.2940
     11 C7          4.1836   -3.6577   -2.4280 C.2       1 <0>        -0.0380
     12 C8          4.6176   -4.9820   -2.4047 C.2       1 <0>        -0.1751
     13 C9          4.1406   -5.7634   -1.3995 C.2       1 <0>        -0.2161
     14 S1          3.1435   -4.7741   -0.4858 S.3       1 <0>         0.2549
     15 C10         4.6741   -7.1698   -1.4855 C.3       1 <0>        -0.0387
     16 C11         5.2128   -7.2961   -2.9268 C.3       1 <0>        -0.1180
     17 C12         5.5503   -5.8325   -3.2710 C.3       1 <0>        -0.0606
     18 H2         -0.8922    1.9965    0.0253 H         1 <0>         0.1792
     19 H3          1.6079    2.7966    0.0017 H         1 <0>         0.1715
     20 H4          2.3321   -2.0144    0.8995 H         1 <0>         0.1253
     21 H5          0.9455   -2.4885   -0.1109 H         1 <0>         0.1123
     22 H6          4.5109   -2.9680   -3.1920 H         1 <0>         0.1457
     23 H7          5.4789   -7.3155   -0.7650 H         1 <0>         0.0911
     24 H8          3.8745   -7.8905   -1.3142 H         1 <0>         0.0836
     25 H9          6.1069   -7.9189   -2.9551 H         1 <0>         0.0850
     26 H10         4.4464   -7.6869   -3.5962 H         1 <0>         0.0770
     27 H11         5.3626   -5.6408   -4.3275 H         1 <0>         0.0749
     28 H12         6.5909   -5.6181   -3.0273 H         1 <0>         0.0800
@<TRIPOS>BOND
     1    1    5 1
     2    1    2 2
     3    1   18 1
     4    2    3 1
     5    2   19 1
     6    3    4 2
     7    4    5 1
     8    4    7 1
     9    5    6 1
    10    7    8 1
    11    7   20 1
    12    7   21 1
    13    8    9 2
    14    8   10 1
    15   10   14 1
    16   10   11 2
    17   11   12 1
    18   11   22 1
    19   12   17 1
    20   12   13 2
    21   13   14 1
    22   13   15 1
    23   15   16 1
    24   15   23 1
    25   15   24 1
    26   16   17 1
    27   16   25 1
    28   16   26 1
    29   17   27 1
    30   17   28 1
@<TRIPOS>MOLECULE
ZINC41258978
   28    29     0     0     0
SMALL
USER_CHARGES

@<TRIPOS>ATOM
      1 C1         -0.0184    1.5028    0.0103 C.3       1 <0>        -0.1086
      2 C2          0.0021   -0.0041    0.0020 C.ar      1 <0>        -0.1260
      3 C3          0.0057   -0.6855   -1.1954 C.ar      1 <0>        -0.0156
      4 C4          0.0246   -2.0816   -1.2021 C.ar      1 <0>        -0.1238
      5 C5          0.0398   -2.7821    0.0060 C.ar      1 <0>        -0.0377
      6 C6          0.0361   -2.0940    1.1992 C.ar      1 <0>        -0.2161
      7 C7          0.0230   -0.7043    1.2019 C.ar      1 <0>         0.1643
      8 O1          0.0249   -0.0294    2.3798 O.3       1 <0>        -0.3068
      9 C8          0.0469   -0.8115    3.5756 C.3       1 <0>         0.0226
     10 C9          0.0281   -2.8168   -2.4853 C.2       1 <0>         0.3103
     11 C10         0.0472   -4.2280   -2.4951 C.2       1 <0>        -0.2436
     12 C11         0.0495   -4.8758   -3.6861 C.2       1 <0>         0.1689
     13 N1          0.0333   -4.1501   -4.8390 N.pl3     1 <0>        -0.5692
     14 C12         0.0157   -2.8054   -4.7962 C.2       1 <0>         0.4627
     15 N2          0.0077   -2.1536   -3.6348 N.2       1 <0>        -0.4849
     16 S1         -0.0039   -1.9172   -6.2597 S.2       1 <0>        -0.5609
     17 H1          1.0042    1.8801    0.0026 H         1 <0>         0.0724
     18 H2         -0.5455    1.8639   -0.8728 H         1 <0>         0.0711
     19 H3         -0.5286    1.8543    0.9071 H         1 <0>         0.0727
     20 H4         -0.0065   -0.1405   -2.1277 H         1 <0>         0.1499
     21 H5          0.0542   -3.8620    0.0047 H         1 <0>         0.1355
     22 H6          0.0479   -2.6351    2.1338 H         1 <0>         0.1387
     23 H7          0.9456   -1.4282    3.5899 H         1 <0>         0.0597
     24 H8          0.0461   -0.1503    4.4422 H         1 <0>         0.1049
     25 H9         -0.8342   -1.4524    3.6068 H         1 <0>         0.0596
     26 H10         0.0602   -4.7829   -1.5687 H         1 <0>         0.1695
     27 H11         0.0643   -5.9551   -3.7206 H         1 <0>         0.1926
     28 H12         0.0348   -4.6054   -5.6955 H         1 <0>         0.4378
@<TRIPOS>BOND
     1    1    2 1
     2    1   17 1
     3    1   18 1
     4    1   19 1
     5    2    7 ar
     6    2    3 ar
     7    3    4 ar
     8    3   20 1
     9    4    5 ar
    10    4   10 1
    11    5    6 ar
    12    5   21 1
    13    6    7 ar
    14    6   22 1
    15    7    8 1
    16    8    9 1
    17    9   23 1
    18    9   24 1
    19    9   25 1
    20   10   11 1
    21   10   15 2
    22   11   12 2
    23   11   26 1
    24   12   13 1
    25   12   27 1
    26   13   14 1
    27   13   28 1
    28   14   16 2
    29   14   15 1
@<TRIPOS>MOLECULE
ZINC49531405
   28    29     0     0     0
SMALL
USER_CHARGES

@<TRIPOS>ATOM
      1 C1         -0.0762    0.8871    0.1946 C.3       1 <0>        -0.0838
      2 C2         -0.7027    1.3901   -1.0804 C.2       1 <0>         0.2823
      3 N1         -0.0847    1.5699   -2.2032 N.2       1 <0>        -0.2778
      4 N2         -1.0124    2.0448   -3.1406 N.pl3     1 <0>        -0.4743
      5 C3         -2.2045    2.1354   -2.5147 C.2       1 <0>         0.4733
      6 N3         -2.0239    1.7272   -1.2426 N.pl3     1 <0>        -0.4875
      7 C4         -3.0597    1.6583   -0.2089 C.3       1 <0>         0.1958
      8 H1         -2.6289    1.2637    0.7114 H         1 <0>         0.1191
      9 C5         -3.6170    3.0597    0.0488 C.3       1 <0>        -0.1830
     10 C6         -4.1717    0.7526   -0.6716 C.ar      1 <0>        -0.1575
     11 C7         -5.3754    1.2916   -1.0853 C.ar      1 <0>        -0.0193
     12 C8         -6.3956    0.4611   -1.5097 C.ar      1 <0>        -0.1348
     13 C9         -6.2134   -0.9094   -1.5210 C.ar      1 <0>        -0.0717
     14 C10        -5.0108   -1.4505   -1.1084 C.ar      1 <0>        -0.1658
     15 C11        -3.9862   -0.6192   -0.6879 C.ar      1 <0>         0.1130
     16 F1         -2.8083   -1.1468   -0.2886 F         1 <0>        -0.1418
     17 S1         -3.6767    2.6642   -3.2102 S.2       1 <0>        -0.5672
     18 H2         -0.1377   -0.2008    0.2251 H         1 <0>         0.1050
     19 H3          0.9694    1.1930    0.2310 H         1 <0>         0.1077
     20 H4         -0.6071    1.3051    1.0498 H         1 <0>         0.0947
     21 H5         -4.3877    3.0084    0.8180 H         1 <0>         0.0883
     22 H6         -2.8127    3.7147    0.3835 H         1 <0>         0.0665
     23 H7         -4.0478    3.4542   -0.8714 H         1 <0>         0.1030
     24 H8         -5.5190    2.3619   -1.0765 H         1 <0>         0.1457
     25 H9         -7.3359    0.8831   -1.8325 H         1 <0>         0.1329
     26 H10        -7.0114   -1.5574   -1.8522 H         1 <0>         0.1337
     27 H11        -4.8688   -2.5211   -1.1170 H         1 <0>         0.1350
     28 H12        -0.8310    2.2674   -4.0671 H         1 <0>         0.4682
@<TRIPOS>BOND
     1    1   18 1
     2    1   19 1
     3    1   20 1
     4    1    2 1
     5    2    6 1
     6    2    3 2
     7    3    4 1
     8    4    5 1
     9    4   28 1
    10    5   17 2
    11    5    6 1
    12    6    7 1
    13    7    8 1
    14    7    9 1
    15    7   10 1
    16    9   21 1
    17    9   22 1
    18    9   23 1
    19   10   15 ar
    20   10   11 ar
    21   11   12 ar
    22   11   24 1
    23   12   13 ar
    24   12   25 1
    25   13   14 ar
    26   13   26 1
    27   14   15 ar
    28   14   27 1
    29   15   16 1
@<TRIPOS>MOLECULE
ZINC55303383
   31    33     0     0     0
SMALL
USER_CHARGES

@<TRIPOS>ATOM
      1 C1         -0.0164    1.3552    0.0095 C.ar      1 <0>        -0.1183
      2 C2          1.1573    2.0973    0.0023 C.ar      1 <0>        -0.0961
      3 C3          2.3741    1.4452   -0.0128 C.ar      1 <0>        -0.0757
      4 C4          2.4061    0.0671   -0.0204 C.ar      1 <0>        -0.1138
      5 C5          1.2281   -0.7107   -0.0134 C.ar      1 <0>        -0.0800
      6 C6          0.0021   -0.0041    0.0020 C.ar      1 <0>        -0.0820
      7 C7          1.4506   -2.1491   -0.0232 C.2       1 <0>        -0.1371
      8 C8          2.7062   -2.6192   -0.0376 C.2       1 <0>        -0.1264
      9 S1          3.7042   -1.1421   -0.0393 S.3       1 <0>         0.0356
     10 C9          0.2817   -3.1002   -0.0167 C.3       1 <0>         0.1758
     11 H1         -0.5372   -2.6735   -0.5958 H         1 <0>         0.1226
     12 C10        -0.1790   -3.3322    1.4238 C.3       1 <0>         0.0276
     13 H2         -0.5639   -2.4002    1.8377 H         1 <0>         0.0769
     14 C11        -1.2815   -4.3949    1.4437 C.3       1 <0>         0.0335
     15 O1         -1.6279   -4.6865    2.8009 O.3       1 <0>        -0.3777
     16 C12        -0.5236   -5.1410    3.5888 C.3       1 <0>         0.0224
     17 C13         0.5789   -4.0783    3.5689 C.3       1 <0>         0.0269
     18 O2          0.9257   -3.7853    2.2120 O.3       1 <0>        -0.3713
     19 O3          0.6772   -4.3449   -0.5966 O.3       1 <0>        -0.5461
     20 H3         -0.9657    1.8698    0.0259 H         1 <0>         0.1289
     21 H4          1.1186    3.1766    0.0080 H         1 <0>         0.1356
     22 H5          3.2942    2.0107   -0.0189 H         1 <0>         0.1324
     23 H6         -0.9293   -0.5508    0.0079 H         1 <0>         0.1229
     24 H7          3.0347   -3.6480   -0.0458 H         1 <0>         0.1876
     25 H8         -2.1586   -4.0198    0.9163 H         1 <0>         0.1056
     26 H9         -0.9224   -5.3015    0.9565 H         1 <0>         0.0724
     27 H10        -0.8518   -5.3063    4.6150 H         1 <0>         0.1061
     28 H11        -0.1390   -6.0727    3.1738 H         1 <0>         0.0627
     29 H12         0.2199   -3.1718    4.0560 H         1 <0>         0.0611
     30 H13         1.4560   -4.4535    4.0962 H         1 <0>         0.1074
     31 H14         1.4036   -4.7823   -0.1316 H         1 <0>         0.3807
@<TRIPOS>BOND
     1    1    6 ar
     2    1    2 ar
     3    1   20 1
     4    2    3 ar
     5    2   21 1
     6    3    4 ar
     7    3   22 1
     8    4    9 1
     9    4    5 ar
    10    5    6 ar
    11    5    7 1
    12    6   23 1
    13    7    8 2
    14    7   10 1
    15    8    9 1
    16    8   24 1
    17   10   11 1
    18   10   12 1
    19   10   19 1
    20   12   13 1
    21   12   18 1
    22   12   14 1
    23   14   15 1
    24   14   25 1
    25   14   26 1
    26   15   16 1
    27   16   17 1
    28   16   27 1
    29   16   28 1
    30   17   18 1
    31   17   29 1
    32   17   30 1
    33   19   31 1
@<TRIPOS>MOLECULE
ZINC63047037
   29    31     0     0     0
SMALL
USER_CHARGES

@<TRIPOS>ATOM
      1 C1         -0.0168    1.3873    0.0097 C.ar      1 <0>        -0.0609
      2 C2          1.1390    2.1086    0.0025 C.ar      1 <0>        -0.1541
      3 C3          2.3757    1.4452   -0.0129 C.ar      1 <0>        -0.0695
      4 C4          3.5946    2.1434   -0.0202 C.ar      1 <0>         0.1355
      5 N1          4.7275    1.4811   -0.0342 N.ar      1 <0>        -0.4812
      6 C5          4.7842    0.1565   -0.0420 C.ar      1 <0>         0.0627
      7 C6          3.6587   -0.6114   -0.0359 C.ar      1 <0>        -0.1437
      8 C7          2.4070    0.0268   -0.0209 C.ar      1 <0>        -0.0706
      9 C8          1.1970   -0.6939   -0.0132 C.ar      1 <0>         0.2259
     10 C9          0.0021   -0.0041    0.0020 C.ar      1 <0>        -0.2047
     11 N2          1.2064   -2.0873   -0.0212 N.pl3     1 <0>        -0.7346
     12 C10        -0.0573   -2.8284   -0.0131 C.3       1 <0>         0.1964
     13 C11         0.2281   -4.3081   -0.0243 C.2       1 <0>        -0.2078
     14 C12         0.3822   -5.1279   -1.1659 C.2       1 <0>        -0.2014
     15 C13         0.6249   -6.3739   -0.7211 C.2       1 <0>        -0.0371
     16 O1          0.6260   -6.3524    0.6218 O.3       1 <0>        -0.1734
     17 C14         0.3909   -5.1013    1.0498 C.2       1 <0>        -0.0120
     18 H1         -0.9647    1.9047    0.0261 H         1 <0>         0.1255
     19 H2          1.1037    3.1880    0.0083 H         1 <0>         0.1297
     20 H3          3.5994    3.2234   -0.0147 H         1 <0>         0.1644
     21 H4          5.7497   -0.3275   -0.0539 H         1 <0>         0.1515
     22 H5          3.7273   -1.6892   -0.0428 H         1 <0>         0.1285
     23 H6         -0.9295   -0.5504    0.0084 H         1 <0>         0.1246
     24 H7          2.0497   -2.5666   -0.0322 H         1 <0>         0.4011
     25 H8         -0.6219   -2.5741    0.8839 H         1 <0>         0.0719
     26 H9         -0.6393   -2.5640   -0.8959 H         1 <0>         0.0734
     27 H10         0.3169   -4.8140   -2.1972 H         1 <0>         0.1502
     28 H11         0.7905   -7.2441   -1.3389 H         1 <0>         0.2053
     29 H12         0.3389   -4.7860    2.0815 H         1 <0>         0.2043
@<TRIPOS>BOND
     1    1   10 ar
     2    1    2 ar
     3    1   18 1
     4    2    3 ar
     5    2   19 1
     6    3    8 ar
     7    3    4 ar
     8    4    5 ar
     9    4   20 1
    10    5    6 ar
    11    6    7 ar
    12    6   21 1
    13    7    8 ar
    14    7   22 1
    15    8    9 ar
    16    9   10 ar
    17    9   11 1
    18   10   23 1
    19   11   12 1
    20   11   24 1
    21   12   13 1
    22   12   25 1
    23   12   26 1
    24   13   17 2
    25   13   14 1
    26   14   15 2
    27   14   27 1
    28   15   16 1
    29   15   28 1
    30   16   17 1
    31   17   29 1
@<TRIPOS>MOLECULE
ZINC02446824
   36    40     0     0     0
SMALL
USER_CHARGES
methyl-methylsulfanyl-BLAH
@<TRIPOS>ATOM
      1 C1          9.7820    1.8744    0.0276 C.3       1 <0>        -0.1482
      2 C2          8.2860    1.9953    0.3246 C.3       1 <0>        -0.0875
      3 H1          8.1391    2.1981    1.3854 H         1 <0>         0.0803
      4 C3          7.6848    3.1342   -0.5042 C.3       1 <0>        -0.1188
      5 C4          6.2591    3.4245   -0.0335 C.3       1 <0>        -0.0587
      6 C5          5.4662    2.1206   -0.0331 C.2       1 <0>        -0.0621
      7 C6          6.1007    0.9283   -0.0422 C.2       1 <0>        -0.1412
      8 S1          4.7999   -0.2752   -0.0382 S.3       1 <0>         0.2063
      9 C7          3.4149    0.8354   -0.0228 C.2       1 <0>         0.0329
     10 C8          4.0035    2.0943   -0.0222 C.2       1 <0>        -0.0627
     11 C9          3.0677    3.2474   -0.0101 C.2       1 <0>         0.3437
     12 N1          3.2672    4.5507   -0.0072 N.2       1 <0>        -0.4969
     13 C10         2.0945    5.1805    0.0061 C.2       1 <0>         0.2283
     14 N2          1.1263    4.2992    0.0119 N.2       1 <0>        -0.2672
     15 N3          1.7262    3.0303    0.0012 N.pl3     1 <0>        -0.3000
     16 C11         1.2094    1.7471   -0.0001 C.2       1 <0>         0.4247
     17 N4          2.0528    0.6634   -0.0129 N.pl3     1 <0>        -0.3696
     18 C12         1.2399   -0.4380   -0.0117 C.2       1 <0>         0.1734
     19 N5          0.0021   -0.0041    0.0020 N.2       1 <0>        -0.2463
     20 N6         -0.0154    1.2811    0.0091 N.2       1 <0>        -0.2331
     21 S2          1.7587   -2.1218   -0.0260 S.3       1 <0>         0.0220
     22 C13         0.2059   -3.0595   -0.0180 C.3       1 <0>        -0.1389
     23 C14         7.5785    0.6854   -0.0522 C.3       1 <0>        -0.0373
     24 H2          9.9268    1.6771   -1.0346 H         1 <0>         0.0586
     25 H3         10.2820    2.8051    0.2957 H         1 <0>         0.0618
     26 H4         10.2030    1.0549    0.6100 H         1 <0>         0.0591
     27 H5          8.2948    4.0297   -0.3850 H         1 <0>         0.0778
     28 H6          7.6661    2.8463   -1.5553 H         1 <0>         0.0689
     29 H7          6.2842    3.8371    0.9750 H         1 <0>         0.0864
     30 H8          5.7889    4.1377   -0.7106 H         1 <0>         0.0924
     31 H9          1.9623    6.2524    0.0114 H         1 <0>         0.2427
     32 H10         0.4261   -4.1270   -0.0261 H         1 <0>         0.1255
     33 H11        -0.3630   -2.8127    0.8784 H         1 <0>         0.0986
     34 H12        -0.3784   -2.8024   -0.9014 H         1 <0>         0.0986
     35 H13         7.8284   -0.0888    0.6732 H         1 <0>         0.0914
     36 H14         7.8924    0.3717   -1.0478 H         1 <0>         0.0950
@<TRIPOS>BOND
     1    1    2 1
     2    1   24 1
     3    1   25 1
     4    1   26 1
     5    2    3 1
     6    2   23 1
     7    2    4 1
     8    4    5 1
     9    4   27 1
    10    4   28 1
    11    5    6 1
    12    5   29 1
    13    5   30 1
    14    6   10 1
    15    6    7 2
    16    7    8 1
    17    7   23 1
    18    8    9 1
    19    9   17 1
    20    9   10 2
    21   10   11 1
    22   11   15 1
    23   11   12 2
    24   12   13 1
    25   13   14 2
    26   13   31 1
    27   14   15 1
    28   15   16 1
    29   16   20 2
    30   16   17 1
    31   17   18 1
    32   18   19 2
    33   18   21 1
    34   19   20 1
    35   21   22 1
    36   22   32 1
    37   22   33 1
    38   22   34 1
    39   23   35 1
    40   23   36 1
@<TRIPOS>MOLECULE
ZINC10254111
   42    45     0     0     0
SMALL
USER_CHARGES
[4-(4-ethylbenzothiazol-2-yl)piperazin-1-yl]-isoxazol-5-yl-methanone
@<TRIPOS>ATOM
      1 C1          3.8829   -0.8590   -1.6934 C.3       1 <0>        -0.1417
      2 C2          3.5333   -0.5126   -0.2447 C.3       1 <0>        -0.0826
      3 C3          2.1854    0.1599   -0.2003 C.ar      1 <0>        -0.0285
      4 C4          2.1103    1.5288   -0.2032 C.ar      1 <0>        -0.1100
      5 C5          0.8906    2.1876   -0.1636 C.ar      1 <0>        -0.0952
      6 C6         -0.2776    1.4479   -0.1189 C.ar      1 <0>        -0.0703
      7 C7         -0.2119    0.0776   -0.1152 C.ar      1 <0>        -0.1383
      8 C8          1.0125   -0.6277   -0.1557 C.ar      1 <0>         0.1001
      9 N1          0.9124   -1.9752   -0.1462 N.2       1 <0>        -0.5162
     10 C9         -0.2444   -2.5961   -0.1024 C.2       1 <0>         0.3362
     11 S1         -1.4053   -1.2377   -0.0671 S.3       1 <0>        -0.0427
     12 N2         -0.4985   -3.9524   -0.0867 N.pl3     1 <0>        -0.4225
     13 C10         0.1239   -4.6181   -1.2388 C.3       1 <0>         0.0459
     14 C11        -0.0256   -6.1359   -1.0897 C.3       1 <0>         0.0981
     15 N3         -1.4485   -6.4474   -0.8854 N.am      1 <0>        -0.6069
     16 C12        -2.1768   -5.7182    0.1639 C.3       1 <0>         0.1215
     17 C13        -1.9426   -4.2169   -0.0346 C.3       1 <0>         0.0312
     18 C14        -2.0683   -7.3767   -1.6394 C.2       1 <0>         0.6104
     19 O1         -3.2241   -7.6750   -1.4083 O.2       1 <0>        -0.5050
     20 C15        -1.3445   -8.0320   -2.7451 C.2       1 <0>        -0.0923
     21 C16        -1.8647   -8.8932   -3.6724 C.2       1 <0>        -0.1425
     22 C17        -0.7594   -9.2175   -4.4902 C.2       1 <0>        -0.0086
     23 N4          0.2618   -8.5708   -4.0081 N.2       1 <0>        -0.3423
     24 O2         -0.0371   -7.9081   -3.0424 O.3       1 <0>         0.1106
     25 H1          3.9126    0.0539   -2.2883 H         1 <0>         0.0531
     26 H2          4.8579   -1.3454   -1.7255 H         1 <0>         0.0596
     27 H3          3.1275   -1.5323   -2.0985 H         1 <0>         0.0553
     28 H4          4.2888    0.1606    0.1604 H         1 <0>         0.0728
     29 H5          3.5036   -1.4255    0.3501 H         1 <0>         0.0799
     30 H6          3.0217    2.1073   -0.2378 H         1 <0>         0.1341
     31 H7          0.8531    3.2670   -0.1668 H         1 <0>         0.1393
     32 H8         -1.2355    1.9461   -0.0915 H         1 <0>         0.1328
     33 H9         -0.3672   -4.2926   -2.1559 H         1 <0>         0.0617
     34 H10         1.1818   -4.3592   -1.2806 H         1 <0>         0.1148
     35 H11         0.5511   -6.4779   -0.2303 H         1 <0>         0.0958
     36 H12         0.3321   -6.6323   -1.9917 H         1 <0>         0.1182
     37 H13        -1.8068   -6.0201    1.1438 H         1 <0>         0.0927
     38 H14        -3.2422   -5.9357    0.0888 H         1 <0>         0.1142
     39 H15        -2.3833   -3.6669    0.7970 H         1 <0>         0.1089
     40 H16        -2.4049   -3.8970   -0.9684 H         1 <0>         0.0689
     41 H17        -2.8830   -9.2422   -3.7598 H         1 <0>         0.1867
     42 H18        -0.7608   -9.8765   -5.3458 H         1 <0>         0.2027
@<TRIPOS>BOND
     1    1    2 1
     2    1   25 1
     3    1   26 1
     4    1   27 1
     5    2    3 1
     6    2   28 1
     7    2   29 1
     8    3    8 ar
     9    3    4 ar
    10    4    5 ar
    11    4   30 1
    12    5    6 ar
    13    5   31 1
    14    6    7 ar
    15    6   32 1
    16    7   11 1
    17    7    8 ar
    18    8    9 1
    19    9   10 2
    20   10   11 1
    21   10   12 1
    22   12   17 1
    23   12   13 1
    24   13   14 1
    25   13   33 1
    26   13   34 1
    27   14   15 1
    28   14   35 1
    29   14   36 1
    30   15   16 1
    31   15   18 am
    32   16   17 1
    33   16   37 1
    34   16   38 1
    35   17   39 1
    36   17   40 1
    37   18   19 2
    38   18   20 1
    39   20   24 1
    40   20   21 2
    41   21   22 1
    42   21   41 1
    43   22   23 2
    44   22   42 1
    45   23   24 1
@<TRIPOS>MOLECULE
ZINC30875283
   33    36     0     0     0
SMALL
USER_CHARGES
(2-chlorophenyl)-methylsulfanyl-BLAHone
@<TRIPOS>ATOM
      1 C1          2.0932   -4.9686   -0.0443 C.3       1 <0>        -0.1504
      2 S1          3.4819   -3.8015   -0.0511 S.3       1 <0>         0.0398
      3 C2          2.7083   -2.2185   -0.0357 C.2       1 <0>         0.2482
      4 N1          1.3934   -2.0042   -0.0220 N.2       1 <0>        -0.5187
      5 C3          1.1499   -0.6989   -0.0127 C.2       1 <0>         0.4767
      6 N2          0.0021   -0.0041    0.0020 N.2       1 <0>        -0.4702
      7 C4         -0.0157    1.3089    0.0092 C.2       1 <0>         0.2802
      8 C5          1.1967    2.0207    0.0015 C.2       1 <0>        -0.2799
      9 C6          2.4088    1.3042   -0.0139 C.2       1 <0>         0.3169
     10 N3          2.3600   -0.0622   -0.0208 N.pl3     1 <0>        -0.3352
     11 N4          3.3395   -1.0632   -0.0355 N.2       1 <0>        -0.2985
     12 C7          3.6183    2.0173   -0.0217 C.2       1 <0>        -0.2345
     13 C8          3.6093    3.3668   -0.0139 C.2       1 <0>         0.2051
     14 N5          2.4542    4.0873    0.0006 N.am      1 <0>        -0.4672
     15 C9          1.2475    3.4813    0.0080 C.2       1 <0>         0.5699
     16 O1          0.2218    4.1388    0.0201 O.2       1 <0>        -0.4862
     17 C10         2.5189    5.4865    0.0075 C.ar      1 <0>         0.0973
     18 C11         2.5400    6.1880   -1.1906 C.ar      1 <0>        -0.0806
     19 C12         2.6033    7.5676   -1.1806 C.ar      1 <0>        -0.1040
     20 C13         2.6458    8.2511    0.0210 C.ar      1 <0>        -0.0836
     21 C14         2.6245    7.5565    1.2162 C.ar      1 <0>        -0.1018
     22 C15         2.5563    6.1759    1.2134 C.ar      1 <0>        -0.0169
     23 Cl1         2.5235    5.3042    2.7144 Cl        1 <0>        -0.0479
     24 H1          2.4797   -5.9984   -0.0532 H         1 <0>         0.1196
     25 H2          1.4706   -4.8029   -0.9359 H         1 <0>         0.0945
     26 H3          1.4872   -4.8122    0.8603 H         1 <0>         0.0944
     27 H4         -0.9566    1.8391    0.0166 H         1 <0>         0.2036
     28 H5          4.5578    1.4847   -0.0335 H         1 <0>         0.1734
     29 H6          4.5519    3.8939   -0.0197 H         1 <0>         0.1821
     30 H7          2.5066    5.6553   -2.1295 H         1 <0>         0.1406
     31 H8          2.6194    8.1135   -2.1123 H         1 <0>         0.1431
     32 H9          2.6953    9.3300    0.0256 H         1 <0>         0.1438
     33 H10         2.6574    8.0932    2.1528 H         1 <0>         0.1462
@<TRIPOS>BOND
     1    1    2 1
     2    1   24 1
     3    1   25 1
     4    1   26 1
     5    2    3 1
     6    3   11 2
     7    3    4 1
     8    4    5 2
     9    5   10 1
    10    5    6 1
    11    6    7 2
    12    7    8 1
    13    7   27 1
    14    8   15 1
    15    8    9 2
    16    9   10 1
    17    9   12 1
    18   10   11 1
    19   12   13 2
    20   12   28 1
    21   13   14 1
    22   13   29 1
    23   14   15 am
    24   14   17 1
    25   15   16 2
    26   17   22 ar
    27   17   18 ar
    28   18   19 ar
    29   18   30 1
    30   19   20 ar
    31   19   31 1
    32   20   21 ar
    33   20   32 1
    34   21   22 ar
    35   21   33 1
    36   22   23 1
@<TRIPOS>MOLECULE
ZINC58129458
   44    48     0     0     0
SMALL
USER_CHARGES

@<TRIPOS>ATOM
      1 C1         -1.3881   -0.2025   -0.5367 C.ar      1 <0>        -0.1193
      2 C2         -0.3835    0.7470   -0.6524 C.ar      1 <0>        -0.0930
      3 C3          0.9424    0.3680   -0.6353 C.ar      1 <0>        -0.0924
      4 C4          1.2763   -0.9712   -0.5011 C.ar      1 <0>         0.0080
      5 C5          0.2630   -1.9346   -0.3833 C.ar      1 <0>         0.0214
      6 C6         -1.0747   -1.5364   -0.4027 C.ar      1 <0>        -0.0617
      7 N1          0.8857   -3.1388   -0.2681 N.2       1 <0>        -0.4753
      8 C7          2.1705   -2.9515   -0.3094 C.2       1 <0>         0.2647
      9 O1          2.4461   -1.6454   -0.4505 O.3       1 <0>        -0.2089
     10 C8          3.2038   -4.0442   -0.2128 C.3       1 <0>        -0.0113
     11 C9          4.0605   -4.0506   -1.4810 C.3       1 <0>        -0.1184
     12 C10         5.0889   -5.1810   -1.3981 C.3       1 <0>        -0.1311
     13 C11         6.0074   -4.9432   -0.1954 C.3       1 <0>         0.1060
     14 N2          5.1796   -4.7911    1.0090 N.am      1 <0>        -0.5954
     15 C12         4.1009   -3.7935    1.0034 C.3       1 <0>         0.0872
     16 C13         5.4053   -5.5524    2.0979 C.2       1 <0>         0.6070
     17 O2          6.2124   -6.4605    2.0483 O.2       1 <0>        -0.5306
     18 C14         4.6726   -5.2839    3.3507 C.2       1 <0>         0.0038
     19 C15         4.6988   -6.0578    4.4758 C.2       1 <0>        -0.0111
     20 N3          3.8912   -5.4575    5.3935 N.pl3     1 <0>        -0.3625
     21 C16         3.5504   -5.7885    6.6751 C.2       1 <0>         0.0548
     22 C17         2.7121   -5.0079    7.3867 C.2       1 <0>        -0.1335
     23 C18         2.1751   -3.8397    6.8184 C.2       1 <0>        -0.0948
     24 C19         2.5041   -3.4969    5.5452 C.2       1 <0>        -0.0796
     25 C20         3.3833   -4.3227    4.8115 C.2       1 <0>         0.2313
     26 N4          3.8677   -4.2310    3.5845 N.2       1 <0>        -0.4674
     27 H1         -2.4228    0.1071   -0.5473 H         1 <0>         0.1383
     28 H2         -0.6415    1.7906   -0.7570 H         1 <0>         0.1415
     29 H3          1.7192    1.1127   -0.7265 H         1 <0>         0.1359
     30 H4         -1.8606   -2.2717   -0.3134 H         1 <0>         0.1360
     31 H5          2.7055   -5.0076   -0.1050 H         1 <0>         0.1183
     32 H6          3.4212   -4.2043   -2.3503 H         1 <0>         0.0750
     33 H7          4.5774   -3.0956   -1.5748 H         1 <0>         0.0763
     34 H8          4.5733   -6.1339   -1.2794 H         1 <0>         0.0735
     35 H9          5.6833   -5.1997   -2.3117 H         1 <0>         0.0865
     36 H10         6.6772   -5.7944   -0.0732 H         1 <0>         0.0994
     37 H11         6.5908   -4.0364   -0.3547 H         1 <0>         0.0739
     38 H12         4.5288   -2.7929    0.9418 H         1 <0>         0.0752
     39 H13         3.5129   -3.8861    1.9165 H         1 <0>         0.1488
     40 H14         5.2549   -6.9735    4.6119 H         1 <0>         0.1977
     41 H15         3.9562   -6.6840    7.1220 H         1 <0>         0.1691
     42 H16         2.4516   -5.2819    8.3984 H         1 <0>         0.1560
     43 H17         1.5034   -3.2174    7.3911 H         1 <0>         0.1471
     44 H18         2.0972   -2.6015    5.0991 H         1 <0>         0.1536
@<TRIPOS>BOND
     1    1    6 ar
     2    1    2 ar
     3    1   27 1
     4    2    3 ar
     5    2   28 1
     6    3    4 ar
     7    3   29 1
     8    4    9 1
     9    4    5 ar
    10    5    6 ar
    11    5    7 1
    12    6   30 1
    13    7    8 2
    14    8    9 1
    15    8   10 1
    16   10   15 1
    17   10   11 1
    18   10   31 1
    19   11   12 1
    20   11   32 1
    21   11   33 1
    22   12   13 1
    23   12   34 1
    24   12   35 1
    25   13   14 1
    26   13   36 1
    27   13   37 1
    28   14   15 1
    29   14   16 am
    30   15   38 1
    31   15   39 1
    32   16   17 2
    33   16   18 1
    34   18   26 1
    35   18   19 2
    36   19   20 1
    37   19   40 1
    38   20   25 1
    39   20   21 1
    40   21   22 2
    41   21   41 1
    42   22   23 1
    43   22   42 1
    44   23   24 2
    45   23   43 1
    46   24   25 1
    47   24   44 1
    48   25   26 2
@<TRIPOS>MOLECULE
ZINC64387365
   37    39     0     0     0
SMALL
USER_CHARGES

@<TRIPOS>ATOM
      1 C1          1.1800   -0.6701    0.1904 C.ar      1 <0>        -0.0455
      2 C2          2.3824    0.0088    0.1508 C.ar      1 <0>        -0.1220
      3 C3          2.3967    1.3840   -0.0446 C.ar      1 <0>         0.2480
      4 C4          1.2010    2.0733   -0.1999 C.ar      1 <0>        -0.0825
      5 C5          0.0001    1.3884   -0.1593 C.ar      1 <0>         0.1534
      6 C6         -0.0094    0.0169    0.0358 C.ar      1 <0>        -0.1453
      7 F1         -1.1641    2.0572   -0.3097 F         1 <0>        -0.1188
      8 N1          1.2118    3.5388   -0.4078 N.pl3     1 <0>         0.0344
      9 O1          1.2076    3.9902   -1.5294 O.2       1 <0>        -0.1346
     10 O2          1.2248    4.2843    0.5438 O.3       1 <0>        -0.1291
     11 N2          3.6114    2.0724   -0.0845 N.pl3     1 <0>        -0.6751
     12 C7          4.2201    2.3330   -1.3572 C.3       1 <0>         0.1422
     13 C8          5.0723    1.1097   -1.7348 C.3       1 <0>        -0.1658
     14 C9          6.3569    1.0949   -1.0173 C.3       1 <0>         0.1372
     15 N3          6.1291    1.0955    0.4472 N.pl3     1 <0>        -0.5516
     16 C10         5.7661    2.3123    1.1183 C.3       1 <0>         0.1101
     17 C11         4.2295    2.5173    1.1945 C.3       1 <0>         0.1177
     18 C12         6.2661   -0.0794    1.1698 C.2       1 <0>         0.3237
     19 N4          6.5942   -1.2759    0.7309 N.2       1 <0>        -0.5934
     20 C13         6.6836   -2.3041    1.5561 C.2       1 <0>         0.0806
     21 C14         6.4233   -2.0684    2.8644 C.2       1 <0>        -0.2749
     22 S1          6.0604   -0.3207    2.8226 S.3       1 <0>         0.0634
     23 H1          1.1695   -1.7399    0.3379 H         1 <0>         0.1534
     24 H2          3.3109   -0.5293    0.2721 H         1 <0>         0.1467
     25 H3         -0.9480   -0.5166    0.0669 H         1 <0>         0.1602
     26 H4          3.4477    2.4906   -2.1099 H         1 <0>         0.0714
     27 H5          4.8543    3.2169   -1.2883 H         1 <0>         0.0787
     28 H6          4.5191    0.2027   -1.4909 H         1 <0>         0.0705
     29 H7          5.2650    1.1287   -2.8074 H         1 <0>         0.0842
     30 H8          6.9150    0.2008   -1.2952 H         1 <0>         0.0932
     31 H9          6.9341    1.9774   -1.2930 H         1 <0>         0.0757
     32 H10         6.1699    2.2907    2.1305 H         1 <0>         0.0866
     33 H11         6.2053    3.1545    0.5834 H         1 <0>         0.0926
     34 H12         4.0078    3.5720    1.3578 H         1 <0>         0.0780
     35 H13         3.8247    1.9289    2.0179 H         1 <0>         0.0763
     36 H14         6.9520   -3.2889    1.2031 H         1 <0>         0.1689
     37 H15         6.4354   -2.7494    3.7025 H         1 <0>         0.1911
@<TRIPOS>BOND
     1    1    6 ar
     2    1    2 ar
     3    1   23 1
     4    2    3 ar
     5    2   24 1
     6    3    4 ar
     7    3   11 1
     8    4    5 ar
     9    4    8 1
    10    5    6 ar
    11    5    7 1
    12    6   25 1
    13    8    9 2
    14    8   10 1
    15   11   17 1
    16   11   12 1
    17   12   13 1
    18   12   26 1
    19   12   27 1
    20   13   14 1
    21   13   28 1
    22   13   29 1
    23   14   15 1
    24   14   30 1
    25   14   31 1
    26   15   16 1
    27   15   18 1
    28   16   17 1
    29   16   32 1
    30   16   33 1
    31   17   34 1
    32   17   35 1
    33   18   22 1
    34   18   19 2
    35   19   20 1
    36   20   21 2
    37   20   36 1
    38   21   22 1
    39   21   37 1
@<TRIPOS>MOLECULE
ZINC06292434
   57    61     0     0     0
SMALL
USER_CHARGES
N-(8-tert-butyl-6,7,8,9-tetrahydrodibenzofuran-2-yl)quinoline-8-sulfonamide
@<TRIPOS>ATOM
      1 C1          1.5137    6.2484   -7.7163 C.3       1 <0>        -0.1476
      2 C2          2.9902    5.9925   -8.0254 C.3       1 <0>        -0.0626
      3 C3          3.4938    7.0448   -9.0153 C.3       1 <0>        -0.1457
      4 C4          3.1491    4.5993   -8.6374 C.3       1 <0>        -0.1451
      5 C5          3.8041    6.0776   -6.7326 C.3       1 <0>        -0.0770
      6 H1          4.8563    5.8969   -6.9525 H         1 <0>         0.0756
      7 C6          3.6414    7.4702   -6.1167 C.3       1 <0>        -0.1159
      8 C7          4.6386    7.6411   -4.9656 C.3       1 <0>        -0.0412
      9 C8          4.5193    6.4478   -4.0450 C.2       1 <0>         0.0290
     10 C9          3.9241    5.2956   -4.3970 C.2       1 <0>        -0.1733
     11 C10         4.0141    4.4056   -3.2414 C.ar      1 <0>        -0.1125
     12 C11         3.6021    3.1001   -2.9748 C.ar      1 <0>        -0.0840
     13 C12         3.8528    2.5440   -1.7335 C.ar      1 <0>         0.1350
     14 C13         4.5231    3.2810   -0.7592 C.ar      1 <0>        -0.0519
     15 C14         4.9378    4.5690   -1.0168 C.ar      1 <0>        -0.1103
     16 C15         4.6902    5.1464   -2.2556 C.ar      1 <0>         0.0508
     17 O1          4.9702    6.3577   -2.7835 O.3       1 <0>        -0.1912
     18 N1          3.4374    1.2366   -1.4573 N.pl3     1 <0>        -1.0500
     19 S1          2.6947    0.8903   -0.0183 S.o2      1 <0>         2.7017
     20 O2          3.5002    1.4631    1.0026 O.2       1 <0>        -0.9319
     21 O3          2.3744   -0.4937   -0.0494 O.2       1 <0>        -0.9577
     22 C16         1.1632    1.7614    0.0004 C.ar      1 <0>        -0.6638
     23 C17        -0.0126    1.0758    0.0080 C.ar      1 <0>         0.0262
     24 C18        -1.2347    1.7445    0.0175 C.ar      1 <0>        -0.1503
     25 C19        -1.2864    3.1053    0.0315 C.ar      1 <0>        -0.0296
     26 C20        -0.0932    3.8449    0.0236 C.ar      1 <0>        -0.1242
     27 C21         1.1511    3.1669    0.0081 C.ar      1 <0>         0.2048
     28 N2          2.2899    3.8670    0.0005 N.ar      1 <0>        -0.4773
     29 C22         2.2840    5.1778    0.0072 C.ar      1 <0>         0.1609
     30 C23         1.0960    5.9057    0.0225 C.ar      1 <0>        -0.1782
     31 C24        -0.1034    5.2526    0.0309 C.ar      1 <0>        -0.0421
     32 C25         3.2997    5.0228   -5.7395 C.3       1 <0>        -0.0455
     33 H2          1.4005    7.2410   -7.2803 H         1 <0>         0.0575
     34 H3          0.9339    6.1878   -8.6373 H         1 <0>         0.0544
     35 H4          1.1549    5.4987   -7.0111 H         1 <0>         0.0573
     36 H5          4.5456    6.8626   -9.2355 H         1 <0>         0.0554
     37 H6          2.9140    6.9842   -9.9363 H         1 <0>         0.0554
     38 H7          3.3806    8.0374   -8.5793 H         1 <0>         0.0589
     39 H8          2.7903    3.8496   -7.9321 H         1 <0>         0.0567
     40 H9          2.5693    4.5387   -9.5584 H         1 <0>         0.0551
     41 H10         4.2009    4.4170   -8.8576 H         1 <0>         0.0551
     42 H11         3.8311    8.2279   -6.8770 H         1 <0>         0.0840
     43 H12         2.6259    7.5830   -5.7370 H         1 <0>         0.0717
     44 H13         4.4088    8.5530   -4.4145 H         1 <0>         0.0871
     45 H14         5.6517    7.6963   -5.3639 H         1 <0>         0.0895
     46 H15         3.0867    2.5280   -3.7320 H         1 <0>         0.1246
     47 H16         4.7196    2.8384    0.2061 H         1 <0>         0.1665
     48 H17         5.4560    5.1311   -0.2540 H         1 <0>         0.1359
     49 H18         3.5845    0.5332   -2.1088 H         1 <0>         0.4253
     50 H19         0.0021   -0.0041    0.0020 H         1 <0>         0.1518
     51 H20        -2.1531    1.1763    0.0184 H         1 <0>         0.1412
     52 H21        -2.2398    3.6125    0.0433 H         1 <0>         0.1396
     53 H22         3.2251    5.7077    0.0010 H         1 <0>         0.1645
     54 H23         1.1236    6.9854    0.0274 H         1 <0>         0.1419
     55 H24        -1.0338    5.8009    0.0431 H         1 <0>         0.1428
     56 H25         3.5880    4.0292   -6.0826 H         1 <0>         0.0745
     57 H26         2.2144    5.0815   -5.6576 H         1 <0>         0.0779
@<TRIPOS>BOND
     1    1    2 1
     2    1   33 1
     3    1   34 1
     4    1   35 1
     5    2    3 1
     6    2    4 1
     7    2    5 1
     8    3   36 1
     9    3   37 1
    10    3   38 1
    11    4   39 1
    12    4   40 1
    13    4   41 1
    14    5    6 1
    15    5   32 1
    16    5    7 1
    17    7    8 1
    18    7   42 1
    19    7   43 1
    20    8    9 1
    21    8   44 1
    22    8   45 1
    23    9   17 1
    24    9   10 2
    25   10   11 1
    26   10   32 1
    27   11   16 ar
    28   11   12 ar
    29   12   13 ar
    30   12   46 1
    31   13   14 ar
    32   13   18 1
    33   14   15 ar
    34   14   47 1
    35   15   16 ar
    36   15   48 1
    37   16   17 1
    38   18   19 1
    39   18   49 1
    40   19   20 2
    41   19   21 2
    42   19   22 1
    43   22   27 ar
    44   22   23 ar
    45   23   24 ar
    46   23   50 1
    47   24   25 ar
    48   24   51 1
    49   25   26 ar
    50   25   52 1
    51   26   31 ar
    52   26   27 ar
    53   27   28 ar
    54   28   29 ar
    55   29   30 ar
    56   29   53 1
    57   30   31 ar
    58   30   54 1
    59   31   55 1
    60   32   56 1
    61   32   57 1
@<TRIPOS>MOLECULE
ZINC14603984
   47    51     0     0     0
SMALL
USER_CHARGES
N-[2-(1,3-benzothiazol-2-yl)phenyl]-5-methyl-3-phenyl-isoxazole-4-carboxamide
@<TRIPOS>ATOM
      1 C1          3.6450    0.3142   -0.0404 C.3       1 <0>        -0.0867
      2 C2          2.1484    0.4908   -0.0445 C.2       1 <0>         0.0339
      3 C3          1.4624    1.6794   -0.0377 C.2       1 <0>        -0.2582
      4 C4          0.0502    1.2435   -0.0464 C.2       1 <0>         0.1061
      5 N1          0.0969   -0.0643   -0.0565 N.2       1 <0>        -0.3390
      6 O1          1.2302   -0.4782   -0.0556 O.3       1 <0>         0.1098
      7 C5         -1.1588    2.1027   -0.0495 C.ar      1 <0>        -0.0320
      8 C6         -1.1645    3.3047    0.6559 C.ar      1 <0>        -0.0897
      9 C7         -2.2904    4.1028    0.6451 C.ar      1 <0>        -0.1163
     10 C8         -3.4156    3.7064   -0.0550 C.ar      1 <0>        -0.1012
     11 C9         -3.4174    2.5119   -0.7526 C.ar      1 <0>        -0.1192
     12 C10        -2.2954    1.7084   -0.7532 C.ar      1 <0>        -0.0841
     13 C11         2.0003    3.0500   -0.0249 C.2       1 <0>         0.6123
     14 O2          2.2186    3.6078    1.0337 O.2       1 <0>        -0.4913
     15 N2          2.2509    3.6865   -1.1862 N.am      1 <0>        -0.6606
     16 C12         2.6763    5.0148   -1.1758 C.ar      1 <0>         0.1736
     17 C13         3.5179    5.4694   -0.1703 C.ar      1 <0>        -0.1199
     18 C14         3.9422    6.7836   -0.1647 C.ar      1 <0>        -0.0734
     19 C15         3.5243    7.6587   -1.1534 C.ar      1 <0>        -0.1312
     20 C16         2.6835    7.2249   -2.1567 C.ar      1 <0>        -0.0467
     21 C17         2.2511    5.8983   -2.1777 C.ar      1 <0>        -0.0502
     22 C18         1.3509    5.4275   -3.2499 C.2       1 <0>         0.2054
     23 N3          0.9341    6.0704   -4.3194 N.2       1 <0>        -0.4909
     24 C19         0.1060    5.5117   -5.2234 C.ar      1 <0>         0.0788
     25 C20        -0.4132    6.0881   -6.4074 C.ar      1 <0>        -0.0581
     26 C21        -1.2442    5.3823   -7.2197 C.ar      1 <0>        -0.1105
     27 C22        -1.6164    4.0778   -6.9257 C.ar      1 <0>        -0.0898
     28 C23        -1.1319    3.4772   -5.7786 C.ar      1 <0>        -0.0681
     29 C24        -0.2917    4.1812   -4.9513 C.ar      1 <0>        -0.1378
     30 S1          0.5564    3.8364   -3.4289 S.3       1 <0>        -0.0223
     31 H1          3.8854   -0.7490   -0.0474 H         1 <0>         0.0970
     32 H2          4.0693    0.7885   -0.9253 H         1 <0>         0.0972
     33 H3          4.0628    0.7752    0.8546 H         1 <0>         0.1011
     34 H4         -0.2880    3.6130    1.2065 H         1 <0>         0.1279
     35 H5         -2.2946    5.0362    1.1883 H         1 <0>         0.1294
     36 H6         -4.2959    4.3321   -0.0573 H         1 <0>         0.1277
     37 H7         -4.2987    2.2074   -1.2975 H         1 <0>         0.1295
     38 H8         -2.2979    0.7760   -1.2981 H         1 <0>         0.1269
     39 H9          2.1353    3.2209   -2.0292 H         1 <0>         0.4085
     40 H10         3.8443    4.7938    0.6065 H         1 <0>         0.1491
     41 H11         4.6002    7.1321    0.6176 H         1 <0>         0.1368
     42 H12         3.8581    8.6857   -1.1384 H         1 <0>         0.1368
     43 H13         2.3602    7.9111   -2.9255 H         1 <0>         0.1423
     44 H14        -0.1457    7.1013   -6.6690 H         1 <0>         0.1350
     45 H15        -1.6248    5.8487   -8.1164 H         1 <0>         0.1368
     46 H16        -2.2783    3.5375   -7.5863 H         1 <0>         0.1411
     47 H17        -1.4115    2.4628   -5.5354 H         1 <0>         0.1344
@<TRIPOS>BOND
     1    1    2 1
     2    1   31 1
     3    1   32 1
     4    1   33 1
     5    2    6 1
     6    2    3 2
     7    3    4 1
     8    3   13 1
     9    4    5 2
    10    4    7 1
    11    5    6 1
    12    7   12 ar
    13    7    8 ar
    14    8    9 ar
    15    8   34 1
    16    9   10 ar
    17    9   35 1
    18   10   11 ar
    19   10   36 1
    20   11   12 ar
    21   11   37 1
    22   12   38 1
    23   13   14 2
    24   13   15 am
    25   15   16 1
    26   15   39 1
    27   16   21 ar
    28   16   17 ar
    29   17   18 ar
    30   17   40 1
    31   18   19 ar
    32   18   41 1
    33   19   20 ar
    34   19   42 1
    35   20   21 ar
    36   20   43 1
    37   21   22 1
    38   22   30 1
    39   22   23 2
    40   23   24 1
    41   24   29 ar
    42   24   25 ar
    43   25   26 ar
    44   25   44 1
    45   26   27 ar
    46   26   45 1
    47   27   28 ar
    48   27   46 1
    49   28   29 ar
    50   28   47 1
    51   29   30 1
@<TRIPOS>MOLECULE
ZINC32127506
   36    38     0     0     0
SMALL
USER_CHARGES
3,5-dichloro-N-(5-chloro-6-methoxy-1,3-benzothiazol-2-yl)-2-methoxy-benzamide
@<TRIPOS>ATOM
      1 C1         -8.7882   -0.9741    0.0432 C.3       1 <0>         0.0178
      2 O1         -7.7742   -1.9810    0.0329 O.3       1 <0>        -0.2934
      3 C2         -6.4823   -1.5562    0.0276 C.ar      1 <0>         0.1578
      4 C3         -6.1892   -0.2005    0.0326 C.ar      1 <0>        -0.1441
      5 C4         -4.8793    0.2090    0.0276 C.ar      1 <0>        -0.1100
      6 C5         -3.7951   -0.6978    0.0173 C.ar      1 <0>         0.0811
      7 C6         -4.1280   -2.0720    0.0124 C.ar      1 <0>        -0.0187
      8 C7         -5.4379   -2.4769    0.0175 C.ar      1 <0>        -0.0507
      9 Cl1        -5.8022   -4.1743    0.0106 Cl        1 <0>        -0.0392
     10 N1         -2.5645   -0.1383    0.0139 N.2       1 <0>        -0.4975
     11 C8         -2.3805    1.1609    0.0196 C.2       1 <0>         0.3758
     12 S1         -4.0557    1.7834    0.0383 S.3       1 <0>         0.0199
     13 N2         -1.1906    1.8696    0.0179 N.am      1 <0>        -0.6292
     14 C9         -0.0144    1.2117    0.0087 C.2       1 <0>         0.5600
     15 O2          0.0021   -0.0041    0.0020 O.2       1 <0>        -0.4353
     16 C10         1.2527    1.9664    0.0007 C.ar      1 <0>        -0.1341
     17 C11         1.2381    3.3639    0.0083 C.ar      1 <0>        -0.0608
     18 C12         2.4259    4.0639    0.0007 C.ar      1 <0>        -0.0389
     19 C13         3.6361    3.3874   -0.0146 C.ar      1 <0>        -0.0580
     20 C14         3.6642    2.0063   -0.0222 C.ar      1 <0>        -0.0560
     21 C15         2.4776    1.2863   -0.0089 C.ar      1 <0>         0.1789
     22 O3          2.5038   -0.0704   -0.0107 O.3       1 <0>        -0.3087
     23 C16         2.5072   -0.7175   -1.2848 C.3       1 <0>         0.0440
     24 Cl2         5.1855    1.1702   -0.0413 Cl        1 <0>        -0.0259
     25 Cl3         2.4062    5.7997    0.0108 Cl        1 <0>        -0.0379
     26 H1         -9.7791   -1.4517    0.0466 H         1 <0>         0.1104
     27 H2         -8.6880   -0.3437   -0.8527 H         1 <0>         0.0618
     28 H3         -8.6779   -0.3519    0.9436 H         1 <0>         0.0619
     29 H4         -6.9865    0.5281    0.0401 H         1 <0>         0.1490
     30 H5         -3.3410   -2.8115    0.0042 H         1 <0>         0.1537
     31 H6         -1.2055    2.9695    0.0241 H         1 <0>         0.4536
     32 H7          0.2977    3.8948    0.0205 H         1 <0>         0.1475
     33 H8          4.5620    3.9434   -0.0201 H         1 <0>         0.1581
     34 H9          2.5293   -1.8080   -1.1421 H         1 <0>         0.1054
     35 H10         3.3954   -0.4039   -1.8529 H         1 <0>         0.0489
     36 H11         1.5995   -0.4386   -1.8401 H         1 <0>         0.0528
@<TRIPOS>BOND
     1    1    2 1
     2    1   26 1
     3    1   27 1
     4    1   28 1
     5    2    3 1
     6    3    8 ar
     7    3    4 ar
     8    4    5 ar
     9    4   29 1
    10    5   12 1
    11    5    6 ar
    12    6    7 ar
    13    6   10 1
    14    7    8 ar
    15    7   30 1
    16    8    9 1
    17   10   11 2
    18   11   12 1
    19   11   13 1
    20   13   14 am
    21   13   31 1
    22   14   15 2
    23   14   16 1
    24   16   21 ar
    25   16   17 ar
    26   17   18 ar
    27   17   32 1
    28   18   19 ar
    29   18   25 1
    30   19   20 ar
    31   19   33 1
    32   20   21 ar
    33   20   24 1
    34   21   22 1
    35   22   23 1
    36   23   34 1
    37   23   35 1
    38   23   36 1
@<TRIPOS>MOLECULE
ZINC47162666
   43    46     0     0     0
SMALL
USER_CHARGES

@<TRIPOS>ATOM
      1 C1          0.7234   -3.1660    5.4753 C.ar      1 <0>        -0.1047
      2 C2          1.3678   -2.1849    4.7427 C.ar      1 <0>        -0.1158
      3 C3          2.6717   -2.3703    4.3326 C.ar      1 <0>        -0.0969
      4 C4          3.3413   -3.5515    4.6584 C.ar      1 <0>        -0.0242
      5 C5          2.6850   -4.5375    5.3979 C.ar      1 <0>        -0.0917
      6 C6          1.3810   -4.3389    5.8016 C.ar      1 <0>        -0.1144
      7 C7          4.7375   -3.7574    4.2222 C.2       1 <0>         0.0150
      8 C8          5.5067   -4.8536    4.4611 C.2       1 <0>        -0.0159
      9 N1          6.7015   -4.6424    3.8985 N.2       1 <0>        -0.4508
     10 C9          6.6974   -3.4612    3.3238 C.2       1 <0>         0.2152
     11 O1          5.4913   -2.8948    3.5051 O.3       1 <0>        -0.1849
     12 C10         7.8301   -2.8566    2.5932 C.ar      1 <0>         0.0468
     13 C11         7.7026   -1.5855    2.0295 C.ar      1 <0>        -0.1106
     14 C12         8.7643   -1.0269    1.3485 C.ar      1 <0>        -0.0148
     15 C13         9.9534   -1.7233    1.2233 C.ar      1 <0>        -0.6667
     16 C14        10.0865   -2.9832    1.7795 C.ar      1 <0>        -0.0159
     17 C15         9.0348   -3.5513    2.4680 C.ar      1 <0>        -0.0926
     18 S1         11.3042   -1.0024    0.3513 S.o2      1 <0>         2.6889
     19 O2         12.0504   -2.0776   -0.2022 O.2       1 <0>        -0.9422
     20 O3         10.7617    0.0395   -0.4483 O.2       1 <0>        -0.9406
     21 N2         12.2811   -0.2772    1.4747 N.pl3     1 <0>        -1.0596
     22 C16        11.7925    0.7811    2.2469 C.ar      1 <0>         0.1225
     23 C17        11.6388    2.0409    1.6824 C.ar      1 <0>        -0.0693
     24 C18        11.1561    3.0852    2.4465 C.ar      1 <0>        -0.1315
     25 C19        10.8257    2.8778    3.7749 C.ar      1 <0>         0.1227
     26 C20        10.9780    1.6222    4.3407 C.ar      1 <0>        -0.0712
     27 C21        11.4550    0.5728    3.5775 C.ar      1 <0>        -0.0761
     28 Cl1        10.5634    1.3651    6.0067 Cl        1 <0>        -0.0380
     29 F1         10.3546    3.9011    4.5206 F         1 <0>        -0.1200
     30 H1         -0.2961   -3.0138    5.7977 H         1 <0>         0.1296
     31 H2          0.8486   -1.2719    4.4912 H         1 <0>         0.1308
     32 H3          3.1734   -1.6039    3.7606 H         1 <0>         0.1283
     33 H4          3.1970   -5.4536    5.6529 H         1 <0>         0.1315
     34 H5          0.8722   -5.1005    6.3739 H         1 <0>         0.1334
     35 H6          5.2066   -5.7358    5.0070 H         1 <0>         0.1939
     36 H7          6.7749   -1.0411    2.1261 H         1 <0>         0.1426
     37 H8          8.6670   -0.0440    0.9117 H         1 <0>         0.1507
     38 H9         11.0174   -3.5213    1.6781 H         1 <0>         0.1511
     39 H10         9.1415   -4.5330    2.9055 H         1 <0>         0.1515
     40 H11        13.1922   -0.5865    1.5970 H         1 <0>         0.4311
     41 H12        11.8970    2.2037    0.6464 H         1 <0>         0.1554
     42 H13        11.0367    4.0647    2.0075 H         1 <0>         0.1564
     43 H14        11.5692   -0.4070    4.0171 H         1 <0>         0.1511
@<TRIPOS>BOND
     1    1    6 ar
     2    1    2 ar
     3    1   30 1
     4    2    3 ar
     5    2   31 1
     6    3    4 ar
     7    3   32 1
     8    4    5 ar
     9    4    7 1
    10    5    6 ar
    11    5   33 1
    12    6   34 1
    13    7   11 1
    14    7    8 2
    15    8    9 1
    16    8   35 1
    17    9   10 2
    18   10   11 1
    19   10   12 1
    20   12   17 ar
    21   12   13 ar
    22   13   14 ar
    23   13   36 1
    24   14   15 ar
    25   14   37 1
    26   15   16 ar
    27   15   18 1
    28   16   17 ar
    29   16   38 1
    30   17   39 1
    31   18   19 2
    32   18   20 2
    33   18   21 1
    34   21   22 1
    35   21   40 1
    36   22   27 ar
    37   22   23 ar
    38   23   24 ar
    39   23   41 1
    40   24   25 ar
    41   24   42 1
    42   25   26 ar
    43   25   29 1
    44   26   27 ar
    45   26   28 1
    46   27   43 1
@<TRIPOS>MOLECULE
ZINC64449990
   51    55     0     0     0
SMALL
USER_CHARGES

@<TRIPOS>ATOM
      1 C1          1.1508    2.1976    0.2392 C.3       1 <0>        -0.1169
      2 C2          0.9332    0.7068    0.2054 C.ar      1 <0>        -0.0818
      3 C3          0.8052    0.0543   -1.0065 C.ar      1 <0>        -0.1225
      4 C4          0.6056   -1.3132   -1.0375 C.ar      1 <0>        -0.0944
      5 C5          0.5344   -2.0283    0.1434 C.ar      1 <0>        -0.0947
      6 C6          0.6632   -1.3759    1.3553 C.ar      1 <0>        -0.0994
      7 C7          0.8671   -0.0090    1.3862 C.ar      1 <0>        -0.1238
      8 C8          0.3158   -3.5189    0.1096 C.3       1 <0>         0.0116
      9 C9          1.6483   -4.2210    0.0588 C.2       1 <0>         0.2858
     10 N1          2.3009   -4.5438   -1.0509 N.2       1 <0>        -0.5195
     11 C10         3.4410   -5.1519   -0.7407 C.2       1 <0>         0.4617
     12 N2          4.4257   -5.6605   -1.4854 N.2       1 <0>        -0.4702
     13 C11         5.4886   -6.2312   -0.9402 C.2       1 <0>         0.2547
     14 C12         5.5997   -6.3091    0.4397 C.2       1 <0>        -0.1827
     15 C13         4.5841   -5.7896    1.2272 C.2       1 <0>         0.4287
     16 N3          3.5070   -5.2119    0.6229 N.pl3     1 <0>        -0.3383
     17 N4          2.3421   -4.6010    1.1039 N.2       1 <0>        -0.3239
     18 N5          4.6618   -5.8565    2.6014 N.pl3     1 <0>        -0.6649
     19 C14         3.6562   -6.5027    3.3282 C.ar      1 <0>         0.2125
     20 C15         2.6603   -7.2065    2.6630 C.ar      1 <0>        -0.1379
     21 C16         1.6678   -7.8441    3.3815 C.ar      1 <0>        -0.0795
     22 C17         1.6639   -7.7823    4.7644 C.ar      1 <0>         0.0368
     23 C18         2.6563   -7.0801    5.4316 C.ar      1 <0>         0.1124
     24 C19         3.6555   -6.4460    4.7155 C.ar      1 <0>        -0.1743
     25 F1          2.6504   -7.0202    6.7812 F         1 <0>        -0.1212
     26 F2          0.6918   -8.4064    5.4649 F         1 <0>        -0.1268
     27 C20         6.7849   -6.9311    1.1266 C.3       1 <0>        -0.0630
     28 C21         7.5668   -7.8106    0.1522 C.3       1 <0>        -0.1216
     29 C22         7.8559   -6.9942   -1.1128 C.3       1 <0>        -0.1219
     30 C23         6.5430   -6.7826   -1.8643 C.3       1 <0>        -0.0744
     31 H1          2.2197    2.4095    0.2147 H         1 <0>         0.0702
     32 H2          0.6699    2.6547   -0.6256 H         1 <0>         0.0677
     33 H3          0.7201    2.6071    1.1530 H         1 <0>         0.0669
     34 H4          0.8609    0.6130   -1.9291 H         1 <0>         0.1236
     35 H5          0.5050   -1.8229   -1.9844 H         1 <0>         0.1274
     36 H6          0.6073   -1.9345    2.2779 H         1 <0>         0.1227
     37 H7          0.9715    0.5002    2.3329 H         1 <0>         0.1220
     38 H8         -0.2236   -3.8275    1.0051 H         1 <0>         0.1028
     39 H9         -0.2667   -3.7808   -0.7737 H         1 <0>         0.1084
     40 H10         5.4137   -5.4556    3.0647 H         1 <0>         0.4287
     41 H11         2.6619   -7.2548    1.5841 H         1 <0>         0.1243
     42 H12         0.8938   -8.3911    2.8638 H         1 <0>         0.1500
     43 H13         4.4314   -5.9030    5.2347 H         1 <0>         0.1511
     44 H14         7.4371   -6.1434    1.5038 H         1 <0>         0.0839
     45 H15         6.4388   -7.5391    1.9625 H         1 <0>         0.0841
     46 H16         8.5058   -8.1205    0.6108 H         1 <0>         0.0809
     47 H17         6.9742   -8.6884   -0.1057 H         1 <0>         0.0727
     48 H18         8.2794   -6.0286   -0.8365 H         1 <0>         0.0724
     49 H19         8.5572   -7.5370   -1.7466 H         1 <0>         0.0847
     50 H20         6.2031   -7.7356   -2.2699 H         1 <0>         0.1028
     51 H21         6.7061   -6.0816   -2.6829 H         1 <0>         0.1019
@<TRIPOS>BOND
     1    1    2 1
     2    1   31 1
     3    1   32 1
     4    1   33 1
     5    2    7 ar
     6    2    3 ar
     7    3    4 ar
     8    3   34 1
     9    4    5 ar
    10    4   35 1
    11    5    6 ar
    12    5    8 1
    13    6    7 ar
    14    6   36 1
    15    7   37 1
    16    8    9 1
    17    8   38 1
    18    8   39 1
    19    9   17 2
    20    9   10 1
    21   10   11 2
    22   11   16 1
    23   11   12 1
    24   12   13 2
    25   13   30 1
    26   13   14 1
    27   14   15 2
    28   14   27 1
    29   15   16 1
    30   15   18 1
    31   16   17 1
    32   18   19 1
    33   18   40 1
    34   19   24 ar
    35   19   20 ar
    36   20   21 ar
    37   20   41 1
    38   21   22 ar
    39   21   42 1
    40   22   23 ar
    41   22   26 1
    42   23   24 ar
    43   23   25 1
    44   24   43 1
    45   27   28 1
    46   27   44 1
    47   27   45 1
    48   28   29 1
    49   28   46 1
    50   28   47 1
    51   29   30 1
    52   29   48 1
    53   29   49 1
    54   30   50 1
    55   30   51 1
@<TRIPOS>MOLECULE
ZINC09528793
   55    59     0     0     0
SMALL
USER_CHARGES
1,4-dioxa-8-azaspiro[4.5]dec-8-ylcarbonyl-methyl-BLAHone
@<TRIPOS>ATOM
      1 C1         -3.7489   -2.5874    6.1957 C.3       1 <0>         0.0746
      2 N1         -2.4340   -1.9844    6.4274 N.am      1 <0>        -0.5541
      3 C2         -1.8164   -1.2161    5.4291 C.ar      1 <0>         0.1195
      4 C3         -2.5471   -0.7789    4.3418 C.ar      1 <0>        -0.0757
      5 C4         -1.9363    0.0167    3.3680 C.ar      1 <0>        -0.1268
      6 C5         -0.5921    0.3742    3.5055 C.ar      1 <0>        -0.0799
      7 C6          0.1326   -0.0664    4.5899 C.ar      1 <0>        -0.1423
      8 C7         -0.4681   -0.8695    5.5546 C.ar      1 <0>         0.1120
      9 N2          0.2783   -1.3427    6.6252 N.pl3     1 <0>        -0.4839
     10 C8          1.5059   -0.5647    6.8269 C.3       1 <0>         0.0549
     11 C9          2.3840   -1.2667    7.8666 C.3       1 <0>        -0.1220
     12 C10         1.6103   -1.4005    9.1807 C.3       1 <0>        -0.1239
     13 C11         0.3091   -2.1685    8.9271 C.3       1 <0>        -0.1012
     14 C12        -0.5035   -1.4334    7.8594 C.3       1 <0>         0.0759
     15 H1         -0.7206   -0.4285    8.2214 H         1 <0>         0.0851
     16 C13        -1.7974   -2.1590    7.6056 C.2       1 <0>         0.5259
     17 O1         -2.2636   -2.8936    8.4507 O.2       1 <0>        -0.5034
     18 C14        -2.7101    0.4829    2.2017 C.2       1 <0>         0.5671
     19 O2         -3.7855    1.0270    2.3635 O.2       1 <0>        -0.5305
     20 N3         -2.2251    0.3057    0.9568 N.am      1 <0>        -0.6060
     21 C15        -0.8908   -0.2754    0.7496 C.3       1 <0>         0.1050
     22 C16        -1.0172   -1.4712   -0.1998 C.3       1 <0>        -0.1525
     23 C17        -1.7205   -1.0259   -1.4835 C.3       1 <0>         0.2583
     24 C18        -3.1255   -0.5160   -1.1572 C.3       1 <0>        -0.1345
     25 C19        -3.0205    0.6894   -0.2174 C.3       1 <0>         0.1184
     26 O3         -1.8073   -2.1300   -2.3928 O.3       1 <0>        -0.3764
     27 C20        -1.0800   -1.7627   -3.5827 C.3       1 <0>         0.0196
     28 C21        -0.1340   -0.6420   -3.0835 C.3       1 <0>         0.0147
     29 O4         -0.9624    0.0267   -2.1020 O.3       1 <0>        -0.3667
     30 H2         -3.6223   -3.5819    5.7680 H         1 <0>         0.0686
     31 H3         -4.2852   -2.6642    7.1415 H         1 <0>         0.0873
     32 H4         -4.3176   -1.9646    5.5051 H         1 <0>         0.0822
     33 H5         -3.5865   -1.0544    4.2419 H         1 <0>         0.1403
     34 H6         -0.1211    0.9975    2.7598 H         1 <0>         0.1360
     35 H7          1.1711    0.2120    4.6922 H         1 <0>         0.1437
     36 H8          2.0479   -0.4891    5.8842 H         1 <0>         0.0951
     37 H9          1.2499    0.4340    7.1806 H         1 <0>         0.0556
     38 H10         2.6564   -2.2574    7.5028 H         1 <0>         0.0764
     39 H11         3.2873   -0.6803    8.0348 H         1 <0>         0.0790
     40 H12         2.2169   -1.9422    9.9064 H         1 <0>         0.0768
     41 H13         1.3781   -0.4087    9.5687 H         1 <0>         0.0653
     42 H14        -0.2675   -2.2239    9.8504 H         1 <0>         0.0876
     43 H15         0.5416   -3.1752    8.5797 H         1 <0>         0.0794
     44 H16        -0.4839   -0.6083    1.7045 H         1 <0>         0.1017
     45 H17        -0.2310    0.4724    0.3096 H         1 <0>         0.0809
     46 H18        -1.5999   -2.2572    0.2805 H         1 <0>         0.0859
     47 H19        -0.0243   -1.8505   -0.4415 H         1 <0>         0.0844
     48 H20        -3.6271   -0.2173   -2.0777 H         1 <0>         0.0888
     49 H21        -3.6964   -1.3078   -0.6721 H         1 <0>         0.0870
     50 H22        -2.5326    1.5152   -0.7354 H         1 <0>         0.0795
     51 H23        -4.0180    0.9931    0.1003 H         1 <0>         0.0999
     52 H24        -1.7581   -1.3825   -4.3467 H         1 <0>         0.0781
     53 H25        -0.5076   -2.6097   -3.9611 H         1 <0>         0.1014
     54 H26         0.1320    0.0346   -3.8956 H         1 <0>         0.1109
     55 H27         0.7583   -1.0623   -2.6196 H         1 <0>         0.0769
@<TRIPOS>BOND
     1    1    2 1
     2    1   30 1
     3    1   31 1
     4    1   32 1
     5    2   16 am
     6    2    3 1
     7    3    8 ar
     8    3    4 ar
     9    4    5 ar
    10    4   33 1
    11    5    6 ar
    12    5   18 1
    13    6    7 ar
    14    6   34 1
    15    7    8 ar
    16    7   35 1
    17    8    9 1
    18    9   14 1
    19    9   10 1
    20   10   11 1
    21   10   36 1
    22   10   37 1
    23   11   12 1
    24   11   38 1
    25   11   39 1
    26   12   13 1
    27   12   40 1
    28   12   41 1
    29   13   14 1
    30   13   42 1
    31   13   43 1
    32   14   15 1
    33   14   16 1
    34   16   17 2
    35   18   19 2
    36   18   20 am
    37   20   25 1
    38   20   21 1
    39   21   22 1
    40   21   44 1
    41   21   45 1
    42   22   23 1
    43   22   46 1
    44   22   47 1
    45   23   29 1
    46   23   24 1
    47   23   26 1
    48   24   25 1
    49   24   48 1
    50   24   49 1
    51   25   50 1
    52   25   51 1
    53   26   27 1
    54   27   28 1
    55   27   52 1
    56   27   53 1
    57   28   29 1
    58   28   54 1
    59   28   55 1
@<TRIPOS>MOLECULE
ZINC34775024
   45    48     0     0     0
SMALL
USER_CHARGES

@<TRIPOS>ATOM
      1 C1         -0.0187    1.5258    0.0104 C.3       1 <0>        -0.1467
      2 C2          0.0021   -0.0041    0.0020 C.3       1 <0>        -0.1368
      3 C3         -1.4333   -0.5336    0.0129 C.3       1 <0>         0.1052
      4 N1         -1.4134   -1.9985    0.0048 N.am      1 <0>        -0.5091
      5 C4         -1.4103   -2.6465   -1.1718 C.2       1 <0>         0.5766
      6 O1         -1.4234   -2.0204   -2.2156 O.2       1 <0>        -0.4743
      7 C5         -1.3902   -4.1271   -1.1917 C.2       1 <0>        -0.2043
      8 C6         -1.3869   -5.0194   -2.3457 C.2       1 <0>        -0.0305
      9 C7         -1.3665   -6.3373   -2.0474 C.2       1 <0>        -0.2589
     10 S1         -1.3507   -6.3954   -0.2822 S.3       1 <0>         0.3843
     11 C8         -1.3733   -4.7564    0.0517 C.2       1 <0>        -0.0312
     12 N2         -1.3782   -4.0344    1.2190 N.am      1 <0>        -0.4234
     13 C9         -1.3930   -2.6719    1.1966 C.2       1 <0>         0.5587
     14 N3         -1.3942   -1.9908    2.3321 N.2       1 <0>        -0.3338
     15 N4         -1.3751   -2.5705    3.4775 N.2       1 <0>        -0.1476
     16 C10        -1.3528   -3.8790    3.5842 C.2       1 <0>        -0.0068
     17 C11        -1.3621   -4.6665    2.4145 C.2       1 <0>         0.5061
     18 O2         -1.3408   -5.8844    2.4791 O.2       1 <0>        -0.4716
     19 C12        -1.3302   -4.5322    4.9421 C.3       1 <0>        -0.0796
     20 C13        -1.3616   -7.4623   -3.0348 C.3       1 <0>         0.1474
     21 O3         -1.7073   -6.9191   -4.3194 O.3       1 <0>        -0.3567
     22 C14        -0.9638   -5.7481   -4.6676 C.3       1 <0>         0.1092
     23 C15        -1.4038   -4.5644   -3.7985 C.3       1 <0>        -0.0780
     24 C16        -1.2062   -5.4131   -6.1406 C.3       1 <0>        -0.1392
     25 C17         0.5276   -6.0111   -4.4494 C.3       1 <0>        -0.1828
     26 H1          1.0039    1.9031    0.0027 H         1 <0>         0.0631
     27 H2         -0.5459    1.8868   -0.8726 H         1 <0>         0.0596
     28 H3         -0.5289    1.8773    0.9072 H         1 <0>         0.0629
     29 H4          0.5123   -0.3556   -0.8948 H         1 <0>         0.0672
     30 H5          0.5293   -0.3651    0.8851 H         1 <0>         0.0708
     31 H6         -1.9435   -0.1821    0.9097 H         1 <0>         0.1136
     32 H7         -1.9605   -0.1726   -0.8702 H         1 <0>         0.1076
     33 H8         -1.3359   -3.7638    5.7151 H         1 <0>         0.0931
     34 H9         -2.2089   -5.1672    5.0546 H         1 <0>         0.0877
     35 H10        -0.4293   -5.1382    5.0388 H         1 <0>         0.0876
     36 H11        -0.3692   -7.9111   -3.0784 H         1 <0>         0.0842
     37 H12        -2.0950   -8.2137   -2.7421 H         1 <0>         0.1175
     38 H13        -2.4116   -4.2563   -4.0768 H         1 <0>         0.0949
     39 H14        -0.7127   -3.7322   -3.9324 H         1 <0>         0.0995
     40 H15        -2.2688   -5.2314   -6.3018 H         1 <0>         0.0673
     41 H16        -0.6404   -4.5207   -6.4081 H         1 <0>         0.0754
     42 H17        -0.8821   -6.2484   -6.7613 H         1 <0>         0.0691
     43 H18         0.8451   -6.8442   -5.0765 H         1 <0>         0.0704
     44 H19         1.0962   -5.1196   -4.7142 H         1 <0>         0.0712
     45 H20         0.7038   -6.2567   -3.4022 H         1 <0>         0.0612
@<TRIPOS>BOND
     1    1    2 1
     2    1   26 1
     3    1   27 1
     4    1   28 1
     5    2    3 1
     6    2   29 1
     7    2   30 1
     8    3    4 1
     9    3   31 1
    10    3   32 1
    11    4   13 1
    12    4    5 am
    13    5    6 2
    14    5    7 1
    15    7   11 2
    16    7    8 1
    17    8   23 1
    18    8    9 2
    19    9   10 1
    20    9   20 1
    21   10   11 1
    22   11   12 1
    23   12   17 am
    24   12   13 1
    25   13   14 2
    26   14   15 1
    27   15   16 2
    28   16   17 1
    29   16   19 1
    30   17   18 2
    31   19   33 1
    32   19   34 1
    33   19   35 1
    34   20   21 1
    35   20   36 1
    36   20   37 1
    37   21   22 1
    38   22   23 1
    39   22   24 1
    40   22   25 1
    41   23   38 1
    42   23   39 1
    43   24   40 1
    44   24   41 1
    45   24   42 1
    46   25   43 1
    47   25   44 1
    48   25   45 1
@<TRIPOS>MOLECULE
ZINC43746792
   48    52     0     0     0
SMALL
USER_CHARGES

@<TRIPOS>ATOM
      1 C1         -0.0166    1.3734    0.0096 C.ar      1 <0>        -0.1363
      2 C2          1.1694    2.0960    0.0021 C.ar      1 <0>        -0.0728
      3 C3          2.3868    1.4533   -0.0134 C.ar      1 <0>        -0.1085
      4 C4          2.4319    0.0576   -0.0213 C.ar      1 <0>         0.1501
      5 C5          1.2238   -0.6740   -0.0133 C.ar      1 <0>        -0.1917
      6 C6          0.0021   -0.0041    0.0020 C.ar      1 <0>        -0.0417
      7 C7          1.3057   -2.1421   -0.0225 C.2       1 <0>         0.5549
      8 O1          0.3025   -2.8315   -0.0167 O.2       1 <0>        -0.5081
      9 N1          2.5401   -2.6970   -0.0382 N.am      1 <0>        -0.5318
     10 C8          3.6503   -1.9141   -0.0445 C.2       1 <0>         0.3835
     11 N2          3.6091   -0.6164   -0.0371 N.2       1 <0>        -0.5153
     12 C9          2.6802   -4.1553   -0.0479 C.3       1 <0>         0.0767
     13 C10         2.7139   -4.6472   -1.4720 C.2       1 <0>         0.5096
     14 O2          2.6292   -3.8574   -2.3885 O.2       1 <0>        -0.5168
     15 N3          2.8382   -5.9647   -1.7271 N.am      1 <0>        -0.6075
     16 C11         2.8789   -6.4614   -3.1076 C.3       1 <0>         0.1147
     17 C12         4.0789   -7.3787   -3.2996 C.3       1 <0>        -0.1078
     18 H1          3.9755   -7.8806   -4.2616 H         1 <0>         0.1027
     19 C13         5.3870   -6.6041   -3.3044 C.3       1 <0>        -0.0849
     20 C14         5.8126   -6.2237   -1.9106 C.2       1 <0>         0.1875
     21 C15         6.7108   -5.2074   -1.7875 C.2       1 <0>        -0.2471
     22 C16         7.2061   -4.8417   -0.5320 C.2       1 <0>        -0.0054
     23 C17         6.7982   -5.5361    0.5692 C.2       1 <0>        -0.2624
     24 C18         5.8751   -6.5801    0.4100 C.2       1 <0>         0.5080
     25 O3          5.5509   -7.2543    1.3745 O.2       1 <0>        -0.5493
     26 N4          5.3406   -6.8451   -0.8050 N.am      1 <0>        -0.4858
     27 C19         4.2049   -7.7737   -0.8486 C.3       1 <0>         0.1061
     28 H2          4.3069   -8.5168   -0.0577 H         1 <0>         0.1310
     29 C20         4.1357   -8.4460   -2.2059 C.3       1 <0>        -0.1257
     30 C21         2.9423   -6.9374   -0.6279 C.3       1 <0>         0.0916
     31 H3         -0.9617    1.8959    0.0260 H         1 <0>         0.1350
     32 H4          1.1363    3.1755    0.0083 H         1 <0>         0.1361
     33 H5          3.3025    2.0258   -0.0198 H         1 <0>         0.1412
     34 H6         -0.9234   -0.5607    0.0082 H         1 <0>         0.1379
     35 H7          4.6169   -2.3958   -0.0567 H         1 <0>         0.1959
     36 H8          3.6061   -4.4347    0.4550 H         1 <0>         0.1208
     37 H9          1.8343   -4.6051    0.4719 H         1 <0>         0.1303
     38 H10         1.9639   -7.0143   -3.3199 H         1 <0>         0.0785
     39 H11         2.9560   -5.6174   -3.7931 H         1 <0>         0.1004
     40 H12         6.1635   -7.2201   -3.7577 H         1 <0>         0.1015
     41 H13         5.2618   -5.6983   -3.8977 H         1 <0>         0.1007
     42 H14         7.0441   -4.6789   -2.6684 H         1 <0>         0.1425
     43 H15         7.9019   -4.0214   -0.4354 H         1 <0>         0.1373
     44 H16         7.1803   -5.2861    1.5479 H         1 <0>         0.1498
     45 H17         3.2356   -9.0594   -2.2470 H         1 <0>         0.0955
     46 H18         5.0149   -9.0733   -2.3528 H         1 <0>         0.0853
     47 H19         2.9972   -6.4134    0.3262 H         1 <0>         0.0952
     48 H20         2.0775   -7.6009   -0.6376 H         1 <0>         0.0983
@<TRIPOS>BOND
     1    1    6 ar
     2    1    2 ar
     3    1   31 1
     4    2    3 ar
     5    2   32 1
     6    3    4 ar
     7    3   33 1
     8    4   11 1
     9    4    5 ar
    10    5    6 ar
    11    5    7 1
    12    6   34 1
    13    7    8 2
    14    7    9 am
    15    9   10 1
    16    9   12 1
    17   10   11 2
    18   10   35 1
    19   12   13 1
    20   12   36 1
    21   12   37 1
    22   13   14 2
    23   13   15 am
    24   15   30 1
    25   15   16 1
    26   16   17 1
    27   16   38 1
    28   16   39 1
    29   17   18 1
    30   17   29 1
    31   17   19 1
    32   19   20 1
    33   19   40 1
    34   19   41 1
    35   20   26 1
    36   20   21 2
    37   21   22 1
    38   21   42 1
    39   22   23 2
    40   22   43 1
    41   23   24 1
    42   23   44 1
    43   24   25 2
    44   24   26 am
    45   26   27 1
    46   27   28 1
    47   27   29 1
    48   27   30 1
    49   29   45 1
    50   29   46 1
    51   30   47 1
    52   30   48 1
@<TRIPOS>MOLECULE
ZINC04352506
   30    32     0     0     0
SMALL
USER_CHARGES

@<TRIPOS>ATOM
      1 C1          0.0873    1.3764   -0.0215 C.3       1 <0>         0.0317
      2 O1          0.0776   -0.0526   -0.0147 O.3       1 <0>        -0.3297
      3 C2         -1.1272   -0.6562   -0.0111 C.2       1 <0>         0.5418
      4 O2         -2.1414    0.0123   -0.0136 O.2       1 <0>        -0.4573
      5 C3         -1.2144   -2.1283   -0.0040 C.2       1 <0>         0.0825
      6 N1         -0.2136   -2.9407    0.0049 N.2       1 <0>        -0.1747
      7 O3         -0.6044   -4.2977   -0.0008 O.3       1 <0>        -0.1451
      8 C4         -1.9940   -4.3655    0.3735 C.3       1 <0>         0.0206
      9 H1         -2.1599   -4.6390    1.4155 H         1 <0>         0.1746
     10 C5         -2.4939   -2.9369    0.0006 C.3       1 <0>        -0.1273
     11 H2         -3.2520   -2.5446    0.6786 H         1 <0>         0.1886
     12 C6         -2.9775   -3.1352   -1.4214 C.2       1 <0>         0.5413
     13 O4         -3.1693   -2.2553   -2.2329 O.2       1 <0>        -0.4250
     14 N2         -3.1575   -4.4478   -1.6322 N.am      1 <0>        -0.5188
     15 C7         -2.7210   -5.2520   -0.6207 C.2       1 <0>         0.5429
     16 O5         -2.8876   -6.4479   -0.5124 O.2       1 <0>        -0.4122
     17 C8         -3.7434   -4.9583   -2.7994 C.ar      1 <0>         0.1263
     18 C9         -3.7862   -6.3293   -3.0136 C.ar      1 <0>        -0.1289
     19 C10        -4.3638   -6.8296   -4.1641 C.ar      1 <0>        -0.0678
     20 C11        -4.8993   -5.9657   -5.1028 C.ar      1 <0>        -0.0953
     21 C12        -4.8578   -4.5990   -4.8918 C.ar      1 <0>        -0.0681
     22 C13        -4.2865   -4.0939   -3.7402 C.ar      1 <0>        -0.1288
     23 Br1        -5.6887   -6.6542   -6.6772 Br        1 <0>        -0.0390
     24 H3          1.1175    1.7327   -0.0238 H         1 <0>         0.1140
     25 H4         -0.4246    1.7390   -0.9129 H         1 <0>         0.0701
     26 H5         -0.4234    1.7474    0.8671 H         1 <0>         0.0700
     27 H6         -3.3680   -7.0040   -2.2813 H         1 <0>         0.1613
     28 H7         -4.3970   -7.8961   -4.3313 H         1 <0>         0.1449
     29 H8         -5.2762   -3.9267   -5.6262 H         1 <0>         0.1444
     30 H9         -4.2587   -3.0272   -3.5737 H         1 <0>         0.1630
@<TRIPOS>BOND
     1    1    2 1
     2    1   24 1
     3    1   25 1
     4    1   26 1
     5    2    3 1
     6    3    4 2
     7    3    5 1
     8    5   10 1
     9    5    6 2
    10    6    7 1
    11    7    8 1
    12    8    9 1
    13    8   15 1
    14    8   10 1
    15   10   11 1
    16   10   12 1
    17   12   13 2
    18   12   14 am
    19   14   15 am
    20   14   17 1
    21   15   16 2
    22   17   22 ar
    23   17   18 ar
    24   18   19 ar
    25   18   27 1
    26   19   20 ar
    27   19   28 1
    28   20   21 ar
    29   20   23 1
    30   21   22 ar
    31   21   29 1
    32   22   30 1
@<TRIPOS>MOLECULE
ZINC66322605
   48    50     0     0     0
SMALL
USER_CHARGES

@<TRIPOS>ATOM
      1 C1         -0.0178    1.4608    0.0101 C.3       1 <0>         0.0974
      2 N1          0.0021   -0.0041    0.0020 N.am      1 <0>        -0.6105
      3 C2         -0.0854   -0.8060   -1.0764 C.2       1 <0>         0.7045
      4 O1         -0.1954   -0.3971   -2.2157 O.2       1 <0>        -0.5371
      5 N2         -0.0375   -2.1041   -0.7527 N.am      1 <0>        -0.5648
      6 C3          0.0869   -2.2798    0.5792 C.2       1 <0>         0.5386
      7 O2          0.1570   -3.3320    1.1773 O.2       1 <0>        -0.4590
      8 C4          0.1277   -0.8884    1.1677 C.3       1 <0>         0.1280
      9 C5          1.4540   -0.6471    1.8801 C.3       1 <0>        -0.1123
     10 C6          1.4834    0.7788    2.4369 C.3       1 <0>        -0.1339
     11 C7          0.3194    0.9682    3.4116 C.3       1 <0>        -0.1251
     12 C8         -1.0046    0.7436    2.6786 C.3       1 <0>        -0.1340
     13 C9         -1.0431   -0.6822    2.1225 C.3       1 <0>        -0.1116
     14 C10        -0.1115   -3.1982   -1.7242 C.3       1 <0>         0.1042
     15 C11         1.2779   -3.5540   -2.1869 C.2       1 <0>         0.5032
     16 O3          2.2356   -2.9528   -1.7483 O.2       1 <0>        -0.5081
     17 N3          1.4561   -4.5402   -3.0880 N.am      1 <0>        -0.5935
     18 C12         0.2993   -5.2663   -3.6177 C.3       1 <0>         0.0627
     19 C13         2.8068   -4.8861   -3.5377 C.3       1 <0>         0.2434
     20 C14         3.5523   -5.8301   -2.5796 C.3       1 <0>        -0.1285
     21 C15         2.9331   -6.9944   -3.3707 C.3       1 <0>        -0.1374
     22 C16         2.8399   -6.0301   -4.5650 C.3       1 <0>        -0.1280
     23 C17         3.5942   -3.7093   -3.9402 C.1       1 <0>         0.2091
     24 N4          4.2018   -2.8011   -4.2507 N.1       1 <0>        -0.4031
     25 H1          0.0765    1.8198    1.0349 H         1 <0>         0.1122
     26 H2          0.8134    1.8387   -0.5852 H         1 <0>         0.0687
     27 H3         -0.9581    1.8137   -0.4135 H         1 <0>         0.0699
     28 H4          1.5614   -1.3589    2.6986 H         1 <0>         0.0894
     29 H5          2.2744   -0.7785    1.1746 H         1 <0>         0.0762
     30 H6          2.4256    0.9457    2.9589 H         1 <0>         0.0753
     31 H7          1.3907    1.4911    1.6171 H         1 <0>         0.0784
     32 H8          0.4088    0.2511    4.2276 H         1 <0>         0.0691
     33 H9          0.3442    1.9808    3.8143 H         1 <0>         0.0705
     34 H10        -1.8330    0.8856    3.3727 H         1 <0>         0.0755
     35 H11        -1.0913    1.4561    1.8583 H         1 <0>         0.0789
     36 H12        -1.9799   -0.8383    1.5876 H         1 <0>         0.0740
     37 H13        -0.9712   -1.3946    2.9444 H         1 <0>         0.0906
     38 H14        -0.5729   -4.0682   -1.2571 H         1 <0>         0.1301
     39 H15        -0.7102   -2.8847   -2.5795 H         1 <0>         0.1305
     40 H16        -0.0669   -4.7631   -4.5126 H         1 <0>         0.0691
     41 H17         0.5937   -6.2854   -3.8687 H         1 <0>         0.0912
     42 H18        -0.4897   -5.2907   -2.8660 H         1 <0>         0.0820
     43 H19         4.6373   -5.7720   -2.6657 H         1 <0>         0.0999
     44 H20         3.2046   -5.7692   -1.5484 H         1 <0>         0.0858
     45 H21         3.6192   -7.8256   -3.5332 H         1 <0>         0.0861
     46 H22         1.9627   -7.3135   -2.9904 H         1 <0>         0.0920
     47 H23         1.9172   -6.1306   -5.1364 H         1 <0>         0.0939
     48 H24         3.7302   -6.0265   -5.1938 H         1 <0>         0.1064
@<TRIPOS>BOND
     1    1    2 1
     2    1   25 1
     3    1   26 1
     4    1   27 1
     5    2    8 1
     6    2    3 am
     7    3    4 2
     8    3    5 am
     9    5    6 am
    10    5   14 1
    11    6    7 2
    12    6    8 1
    13    8   13 1
    14    8    9 1
    15    9   10 1
    16    9   28 1
    17    9   29 1
    18   10   11 1
    19   10   30 1
    20   10   31 1
    21   11   12 1
    22   11   32 1
    23   11   33 1
    24   12   13 1
    25   12   34 1
    26   12   35 1
    27   13   36 1
    28   13   37 1
    29   14   15 1
    30   14   38 1
    31   14   39 1
    32   15   16 2
    33   15   17 am
    34   17   18 1
    35   17   19 1
    36   18   40 1
    37   18   41 1
    38   18   42 1
    39   19   22 1
    40   19   20 1
    41   19   23 1
    42   20   21 1
    43   20   43 1
    44   20   44 1
    45   21   22 1
    46   21   45 1
    47   21   46 1
    48   22   47 1
    49   22   48 1
    50   23   24 3
@<TRIPOS>MOLECULE
ZINC35654641
   41    42     0     0     0
SMALL
USER_CHARGES

@<TRIPOS>ATOM
      1 C1         -1.4720   -0.3574   -0.0640 C.3       1 <0>        -0.1835
      2 C2          0.0406   -0.1881    0.0917 C.3       1 <0>         0.0190
      3 C3          0.5370   -1.0696    1.2395 C.3       1 <0>        -0.1844
      4 N1          0.7086   -0.5853   -1.1549 N.4       1 <0>        -0.5017
      5 C4          2.1435   -0.2856   -1.0585 C.3       1 <0>         0.0411
      6 H1          2.5636   -0.6925   -0.1387 H         1 <0>         0.1646
      7 C5          2.3981    1.2372   -1.1565 C.3       1 <0>         0.0426
      8 O1          2.6337    1.4310   -2.5614 O.3       1 <0>        -0.2893
      9 C6          3.1388    0.2850   -3.0949 C.ar      1 <0>         0.1196
     10 C7          2.8889   -0.8070   -2.2718 C.ar      1 <0>        -0.2372
     11 C8          3.3052   -2.0700   -2.6290 C.ar      1 <0>        -0.0417
     12 C9          3.9883   -2.2628   -3.8170 C.ar      1 <0>        -0.0836
     13 C10         4.2499   -1.1841   -4.6411 C.ar      1 <0>        -0.0505
     14 C11         3.8304    0.0841   -4.2867 C.ar      1 <0>        -0.1245
     15 C12         4.4458   -3.6436   -4.2108 C.3       1 <0>        -0.0288
     16 C13         3.2327   -4.5683   -4.3296 C.3       1 <0>        -0.1415
     17 C14         5.1697   -3.5765   -5.5570 C.3       1 <0>        -0.1528
     18 C15         5.3996   -4.1880   -3.1454 C.3       1 <0>        -0.1428
     19 H2         -1.8390    0.3350   -0.8217 H         1 <0>         0.0834
     20 H3         -1.6937   -1.3802   -0.3685 H         1 <0>         0.0820
     21 H4         -1.9609   -0.1474    0.8873 H         1 <0>         0.1091
     22 H5          0.2690    0.8551    0.3098 H         1 <0>         0.1383
     23 H6          0.3086   -2.1129    1.0214 H         1 <0>         0.0835
     24 H7          1.6146   -0.9491    1.3504 H         1 <0>         0.0800
     25 H8          0.0413   -0.7749    2.1645 H         1 <0>         0.1089
     26 H9          0.5811   -1.5750   -1.3042 H         1 <0>         0.4287
     27 H10         1.5213    1.7970   -0.8312 H         1 <0>         0.1261
     28 H11         3.2757    1.5202   -0.5752 H         1 <0>         0.1240
     29 H12         3.0991   -2.9098   -1.9820 H         1 <0>         0.1341
     30 H13         4.7857   -1.3330   -5.5670 H         1 <0>         0.1503
     31 H14         4.0389    0.9218   -4.9356 H         1 <0>         0.1434
     32 H15         2.5532   -4.1805   -5.0886 H         1 <0>         0.0588
     33 H16         3.5636   -5.5670   -4.6144 H         1 <0>         0.0678
     34 H17         2.7169   -4.6161   -3.3705 H         1 <0>         0.0535
     35 H18         6.0340   -2.9177   -5.4723 H         1 <0>         0.0627
     36 H19         5.5007   -4.5752   -5.8418 H         1 <0>         0.0681
     37 H20         4.4903   -3.1887   -6.3160 H         1 <0>         0.0620
     38 H21         4.8839   -4.2358   -2.1864 H         1 <0>         0.0548
     39 H22         5.7305   -5.1867   -3.4302 H         1 <0>         0.0673
     40 H23         6.2639   -3.5292   -3.0608 H         1 <0>         0.0601
     41 H24         0.3095   -0.0743   -1.9279 H         1 <0>         0.4287
@<TRIPOS>BOND
     1    1    2 1
     2    1   19 1
     3    1   20 1
     4    1   21 1
     5    2    3 1
     6    2    4 1
     7    2   22 1
     8    3   23 1
     9    3   24 1
    10    3   25 1
    11    4    5 1
    12    4   26 1
    13    4   41 1
    14    5    6 1
    15    5   10 1
    16    5    7 1
    17    7    8 1
    18    7   27 1
    19    7   28 1
    20    8    9 1
    21    9   14 ar
    22    9   10 ar
    23   10   11 ar
    24   11   12 ar
    25   11   29 1
    26   12   13 ar
    27   12   15 1
    28   13   14 ar
    29   13   30 1
    30   14   31 1
    31   15   16 1
    32   15   17 1
    33   15   18 1
    34   16   32 1
    35   16   33 1
    36   16   34 1
    37   17   35 1
    38   17   36 1
    39   17   37 1
    40   18   38 1
    41   18   39 1
    42   18   40 1
@<TRIPOS>MOLECULE
ZINC42859465
   47    48     0     0     0
SMALL
USER_CHARGES

@<TRIPOS>ATOM
      1 C1         -0.0187    1.5258    0.0104 C.3       1 <0>        -0.1608
      2 C2          0.0021   -0.0041    0.0020 C.3       1 <0>        -0.0802
      3 H1          0.5123   -0.3556   -0.8948 H         1 <0>         0.0820
      4 C3         -1.4333   -0.5336    0.0129 C.3       1 <0>        -0.1173
      5 C4         -1.4126   -2.0635    0.0045 C.3       1 <0>        -0.1265
      6 C5         -0.6726   -2.5703    1.2440 C.3       1 <0>        -0.1200
      7 C6          0.7628   -2.0407    1.2331 C.3       1 <0>        -0.1289
      8 C7          0.7421   -0.5109    1.2415 C.3       1 <0>        -0.1076
      9 H2          0.2319   -0.1594    2.1383 H         1 <0>         0.0942
     10 C8          2.1775    0.0187    1.2307 C.3       1 <0>        -0.0154
     11 N1          2.8514   -0.3677    2.4775 N.4       1 <0>        -0.5067
     12 C9          4.2295    0.1408    2.4670 C.3       1 <0>         0.0318
     13 H3          4.2185    1.2170    2.2945 H         1 <0>         0.1485
     14 C10         5.0183   -0.5467    1.3507 C.3       1 <0>        -0.1368
     15 C11         6.4537   -0.0171    1.3399 C.3       1 <0>        -0.1162
     16 C12         7.1159   -0.3107    2.6876 C.3       1 <0>        -0.1252
     17 C13         6.3271    0.3767    3.8039 C.3       1 <0>        -0.1388
     18 C14         4.8917   -0.1528    3.8147 C.3       1 <0>         0.0688
     19 H4          4.3297    0.3369    4.6100 H         1 <0>         0.0843
     20 O1          4.9062   -1.5637    4.0410 O.3       1 <0>        -0.3865
     21 C15         4.8459   -1.9318    5.4204 C.3       1 <0>         0.0237
     22 H5          1.0039    1.9031    0.0027 H         1 <0>         0.0544
     23 H6         -0.5459    1.8868   -0.8726 H         1 <0>         0.0697
     24 H7         -0.5289    1.8773    0.9072 H         1 <0>         0.0612
     25 H8         -1.9435   -0.1821    0.9097 H         1 <0>         0.0671
     26 H9         -1.9605   -0.1726   -0.8702 H         1 <0>         0.0742
     27 H10        -2.4352   -2.4408    0.0122 H         1 <0>         0.0716
     28 H11        -0.9024   -2.4150   -0.8923 H         1 <0>         0.0665
     29 H12        -1.1828   -2.2188    2.1408 H         1 <0>         0.0668
     30 H13        -0.6578   -3.6602    1.2380 H         1 <0>         0.0728
     31 H14         1.2900   -2.4018    2.1162 H         1 <0>         0.0571
     32 H15         1.2730   -2.3923    0.3363 H         1 <0>         0.0787
     33 H16         2.7143   -0.4040    0.3814 H         1 <0>         0.1345
     34 H17         2.1632    1.1054    1.1471 H         1 <0>         0.1356
     35 H18         2.3545    0.0236    3.2636 H         1 <0>         0.4240
     36 H19         5.0294   -1.6229    1.5233 H         1 <0>         0.0953
     37 H20         4.5466   -0.3375    0.3906 H         1 <0>         0.0861
     38 H21         7.0157   -0.5068    0.5446 H         1 <0>         0.0857
     39 H22         6.4426    1.0591    1.1673 H         1 <0>         0.0728
     40 H23         7.1269   -1.3869    2.8601 H         1 <0>         0.0779
     41 H24         8.1385    0.0666    2.6798 H         1 <0>         0.0778
     42 H25         6.7988    0.1676    4.7640 H         1 <0>         0.0855
     43 H26         6.3160    1.4529    3.6313 H         1 <0>         0.0833
     44 H27         5.7040   -1.5130    5.9461 H         1 <0>         0.0561
     45 H28         3.9265   -1.5451    5.8599 H         1 <0>         0.0483
     46 H29         4.8614   -3.0182    5.5076 H         1 <0>         0.1009
     47 H30         2.8646   -1.3736    2.5549 H         1 <0>         0.4297
@<TRIPOS>BOND
     1    1    2 1
     2    1   22 1
     3    1   23 1
     4    1   24 1
     5    2    3 1
     6    2    8 1
     7    2    4 1
     8    4    5 1
     9    4   25 1
    10    4   26 1
    11    5    6 1
    12    5   27 1
    13    5   28 1
    14    6    7 1
    15    6   29 1
    16    6   30 1
    17    7    8 1
    18    7   31 1
    19    7   32 1
    20    8    9 1
    21    8   10 1
    22   10   11 1
    23   10   33 1
    24   10   34 1
    25   11   12 1
    26   11   35 1
    27   11   47 1
    28   12   13 1
    29   12   18 1
    30   12   14 1
    31   14   15 1
    32   14   36 1
    33   14   37 1
    34   15   16 1
    35   15   38 1
    36   15   39 1
    37   16   17 1
    38   16   40 1
    39   16   41 1
    40   17   18 1
    41   17   42 1
    42   17   43 1
    43   18   19 1
    44   18   20 1
    45   20   21 1
    46   21   44 1
    47   21   45 1
    48   21   46 1
@<TRIPOS>MOLECULE
ZINC51291483
   47    48     0     0     0
SMALL
USER_CHARGES

@<TRIPOS>ATOM
      1 C1         -2.8660   -0.9278    0.9564 C.3       1 <0>        -0.1511
      2 C2         -1.4335   -1.2177    0.5038 C.3       1 <0>        -0.1107
      3 H1         -0.9741   -0.2990    0.1389 H         1 <0>         0.0927
      4 C3         -1.4526   -2.2604   -0.6176 C.3       1 <0>        -0.1302
      5 C4         -0.0118   -2.6010   -1.0091 C.3       1 <0>        -0.1101
      6 H2          0.4778   -1.7114   -1.4052 H         1 <0>         0.0920
      7 C5          0.7442   -3.0927    0.2270 C.3       1 <0>        -0.0286
      8 N1          0.7495   -2.0419    1.2519 N.4       1 <0>        -0.3841
      9 C6         -0.6245   -1.7596    1.6842 C.3       1 <0>        -0.0069
     10 C7          1.5421   -2.4888    2.4052 C.3       1 <0>        -0.0092
     11 C8          3.0139   -2.1368    2.1797 C.3       1 <0>        -0.0766
     12 C9          3.8578   -2.7224    3.3137 C.3       1 <0>        -0.1015
     13 C10         3.3926   -2.1388    4.6494 C.3       1 <0>        -0.1280
     14 C11         3.5554   -0.6177    4.6256 C.3       1 <0>        -0.1265
     15 C12         2.7115   -0.0321    3.4916 C.3       1 <0>        -0.1263
     16 C13         3.1766   -0.6157    2.1560 C.3       1 <0>        -0.1197
     17 C14         3.4790   -2.7204    0.8441 C.3       1 <0>         0.0668
     18 O1          4.8866   -2.5194    0.7008 O.3       1 <0>        -0.5542
     19 C15        -0.0180   -3.6983   -2.0754 C.3       1 <0>        -0.1512
     20 H3         -2.8515   -0.1867    1.7556 H         1 <0>         0.0688
     21 H4         -3.4421   -0.5433    0.1148 H         1 <0>         0.0780
     22 H5         -3.3248   -1.8468    1.3212 H         1 <0>         0.0678
     23 H6         -1.9583   -3.1610   -0.2694 H         1 <0>         0.0839
     24 H7         -1.9794   -1.8563   -1.4821 H         1 <0>         0.0953
     25 H8          0.2540   -3.9825    0.6222 H         1 <0>         0.1312
     26 H9          1.7704   -3.3364   -0.0482 H         1 <0>         0.1382
     27 H10        -0.6090   -1.0192    2.4840 H         1 <0>         0.1300
     28 H11        -1.0853   -2.6776    2.0490 H         1 <0>         0.1302
     29 H12         1.1837   -1.9920    3.3068 H         1 <0>         0.1425
     30 H13         1.4400   -3.5679    2.5200 H         1 <0>         0.1337
     31 H14         3.7418   -3.8061    3.3306 H         1 <0>         0.0718
     32 H15         4.9063   -2.4716    3.1531 H         1 <0>         0.0942
     33 H16         2.3441   -2.3895    4.8100 H         1 <0>         0.0596
     34 H17         3.9938   -2.5559    5.4572 H         1 <0>         0.0773
     35 H18         3.2240   -0.2019    5.5771 H         1 <0>         0.0715
     36 H19         4.6039   -0.3669    4.4650 H         1 <0>         0.0724
     37 H20         1.6629   -0.2829    3.6522 H         1 <0>         0.0556
     38 H21         2.8274    1.0516    3.4747 H         1 <0>         0.0778
     39 H22         4.2252   -0.3649    1.9954 H         1 <0>         0.0995
     40 H23         2.5754   -0.1985    1.3481 H         1 <0>         0.0532
     41 H24         3.2599   -3.7879    0.8180 H         1 <0>         0.0603
     42 H25         2.9559   -2.2221    0.0280 H         1 <0>         0.0442
     43 H26         5.2512   -2.8655   -0.1253 H         1 <0>         0.3936
     44 H27        -0.5598   -3.3482   -2.9540 H         1 <0>         0.0788
     45 H28         1.0078   -3.9403   -2.3536 H         1 <0>         0.0674
     46 H29        -0.5063   -4.5882   -1.6781 H         1 <0>         0.0682
     47 H30         1.1593   -1.2028    0.8696 H         1 <0>         0.4187
@<TRIPOS>BOND
     1    1    2 1
     2    1   20 1
     3    1   21 1
     4    1   22 1
     5    2    3 1
     6    2    9 1
     7    2    4 1
     8    4    5 1
     9    4   23 1
    10    4   24 1
    11    5    6 1
    12    5    7 1
    13    5   19 1
    14    7    8 1
    15    7   25 1
    16    7   26 1
    17    8    9 1
    18    8   10 1
    19    8   47 1
    20    9   27 1
    21    9   28 1
    22   10   11 1
    23   10   29 1
    24   10   30 1
    25   11   16 1
    26   11   12 1
    27   11   17 1
    28   12   13 1
    29   12   31 1
    30   12   32 1
    31   13   14 1
    32   13   33 1
    33   13   34 1
    34   14   15 1
    35   14   35 1
    36   14   36 1
    37   15   16 1
    38   15   37 1
    39   15   38 1
    40   16   39 1
    41   16   40 1
    42   17   18 1
    43   17   41 1
    44   17   42 1
    45   18   43 1
    46   19   44 1
    47   19   45 1
    48   19   46 1
@<TRIPOS>MOLECULE
ZINC43810033
   48    49     0     0     0
SMALL
USER_CHARGES

@<TRIPOS>ATOM
      1 C1          0.5184    2.5985   -0.9145 C.3       1 <0>        -0.1579
      2 C2          0.1735    1.1201   -0.7237 C.3       1 <0>         0.0538
      3 N1          0.8889    0.3173   -1.7245 N.3       1 <0>        -0.7129
      4 C3          0.5149   -1.1000   -1.6275 C.3       1 <0>         0.0633
      5 H1          0.3947   -1.3615   -0.5762 H         1 <0>         0.1050
      6 C4         -0.8290   -1.3116   -2.3506 C.3       1 <0>        -0.1426
      7 C5         -1.1021   -2.7908   -2.6834 C.3       1 <0>        -0.1249
      8 C6         -0.7220   -3.7139   -1.5575 C.3       1 <0>        -0.1249
      9 C7          0.7138   -4.2209   -1.8031 C.3       1 <0>        -0.1269
     10 C8          1.7211   -3.2481   -1.4065 C.3       1 <0>        -0.1278
     11 C9          1.6199   -1.9363   -2.2139 C.3       1 <0>         0.0318
     12 H2          1.3944   -2.1624   -3.2561 H         1 <0>         0.1390
     13 N2          2.8911   -1.2051   -2.1276 N.4       1 <0>        -0.3594
     14 C10         3.2616   -1.0356   -0.7175 C.3       1 <0>        -0.0015
     15 C11         4.5427   -0.2046   -0.6191 C.3       1 <0>        -0.1416
     16 C12         5.6710   -0.9261   -1.3618 C.3       1 <0>        -0.1383
     17 C13         5.2433   -1.1637   -2.8130 C.3       1 <0>        -0.1382
     18 C14         3.9363   -1.9592   -2.8301 C.3       1 <0>         0.0203
     19 H3          4.0882   -2.9176   -2.3335 H         1 <0>         0.1328
     20 C15         3.5050   -2.1994   -4.2783 C.3       1 <0>        -0.1823
     21 H4          1.5777    2.7538   -0.7096 H         1 <0>         0.0639
     22 H5          0.2999    2.8930   -1.9410 H         1 <0>         0.0586
     23 H6         -0.0766    3.2018   -0.2289 H         1 <0>         0.0713
     24 H7          0.4709    0.8037    0.2761 H         1 <0>         0.0796
     25 H8         -0.9005    0.9790   -0.8449 H         1 <0>         0.0479
     26 H9          0.7265    0.6712   -2.6553 H         1 <0>         0.3514
     27 H10        -1.6326   -0.9402   -1.7147 H         1 <0>         0.0788
     28 H11        -0.8235   -0.7380   -3.2775 H         1 <0>         0.0715
     29 H12        -2.1637   -2.9140   -2.8973 H         1 <0>         0.0744
     30 H13        -0.5314   -3.0638   -3.5711 H         1 <0>         0.0644
     31 H14        -0.7629   -3.1739   -0.6115 H         1 <0>         0.0691
     32 H15        -1.4091   -4.5596   -1.5295 H         1 <0>         0.0777
     33 H16         0.8663   -5.1385   -1.2348 H         1 <0>         0.0834
     34 H17         0.8339   -4.4408   -2.8639 H         1 <0>         0.0713
     35 H18         1.5962   -3.0224   -0.3474 H         1 <0>         0.0873
     36 H19         2.7096   -3.6813   -1.5590 H         1 <0>         0.0830
     37 H20         2.4563   -0.5249   -0.1896 H         1 <0>         0.1329
     38 H21         3.4279   -2.0137   -0.2659 H         1 <0>         0.1184
     39 H22         4.3774    0.7738   -1.0702 H         1 <0>         0.0868
     40 H23         4.8171   -0.0814    0.4286 H         1 <0>         0.1068
     41 H24         6.5710   -0.3116   -1.3431 H         1 <0>         0.0925
     42 H25         5.8713   -1.8829   -0.8796 H         1 <0>         0.0793
     43 H26         5.0926   -0.2052   -3.3096 H         1 <0>         0.0864
     44 H27         6.0185   -1.7261   -3.3335 H         1 <0>         0.1087
     45 H28         3.2281   -1.2502   -4.7371 H         1 <0>         0.0784
     46 H29         4.3303   -2.6445   -4.8341 H         1 <0>         0.1041
     47 H30         2.6495   -2.8745   -4.2954 H         1 <0>         0.0800
     48 H31         2.7860   -0.2981   -2.5570 H         1 <0>         0.4252
@<TRIPOS>BOND
     1    1    2 1
     2    1   21 1
     3    1   22 1
     4    1   23 1
     5    2    3 1
     6    2   24 1
     7    2   25 1
     8    3    4 1
     9    3   26 1
    10    4    5 1
    11    4   11 1
    12    4    6 1
    13    6    7 1
    14    6   27 1
    15    6   28 1
    16    7    8 1
    17    7   29 1
    18    7   30 1
    19    8    9 1
    20    8   31 1
    21    8   32 1
    22    9   10 1
    23    9   33 1
    24    9   34 1
    25   10   11 1
    26   10   35 1
    27   10   36 1
    28   11   12 1
    29   11   13 1
    30   13   18 1
    31   13   14 1
    32   13   48 1
    33   14   15 1
    34   14   37 1
    35   14   38 1
    36   15   16 1
    37   15   39 1
    38   15   40 1
    39   16   17 1
    40   16   41 1
    41   16   42 1
    42   17   18 1
    43   17   43 1
    44   17   44 1
    45   18   19 1
    46   18   20 1
    47   20   45 1
    48   20   46 1
    49   20   47 1
@<TRIPOS>MOLECULE
ZINC61121081
   34    35     0     0     0
SMALL
USER_CHARGES

@<TRIPOS>ATOM
      1 C1         -0.0184    1.5028    0.0103 C.3       1 <0>        -0.1201
      2 C2          0.0021   -0.0041    0.0020 C.ar      1 <0>        -0.1147
      3 C3          0.0057   -0.6859   -1.1971 C.ar      1 <0>        -0.0692
      4 C4          0.0246   -2.0815   -1.2033 C.ar      1 <0>        -0.0519
      5 C5          0.0398   -2.7797    0.0057 C.ar      1 <0>        -0.0624
      6 C6          0.0360   -2.0879    1.1986 C.ar      1 <0>        -0.1427
      7 C7          0.0229   -0.7020    1.1988 C.ar      1 <0>         0.1224
      8 F1          0.0249   -0.0291    2.3703 F         1 <0>        -0.1252
      9 C8          0.0281   -2.8176   -2.4849 C.2       1 <0>         0.0887
     10 C9          0.0403   -4.1694   -2.6285 C.2       1 <0>        -0.1977
     11 C10         0.0385   -4.4306   -4.0136 C.2       1 <0>        -0.1246
     12 C11         0.0255   -3.2379   -4.6400 C.2       1 <0>        -0.1109
     13 O1          0.0139   -2.2656   -3.7133 O.3       1 <0>        -0.1755
     14 C12         0.0195   -3.0294   -6.1325 C.3       1 <0>         0.1361
     15 H1         -0.3247   -3.9388   -6.6250 H         1 <0>         0.1636
     16 C13         1.4358   -2.6973   -6.6067 C.3       1 <0>        -0.1855
     17 N1         -0.8822   -1.9194   -6.4682 N.4       1 <0>        -0.5119
     18 C14        -0.9809   -1.7932   -7.9284 C.3       1 <0>        -0.0525
     19 H2          1.0042    1.8801    0.0026 H         1 <0>         0.0810
     20 H3         -0.5455    1.8639   -0.8728 H         1 <0>         0.0747
     21 H4         -0.5286    1.8543    0.9071 H         1 <0>         0.0774
     22 H5         -0.0065   -0.1409   -2.1294 H         1 <0>         0.1357
     23 H6          0.0541   -3.8596    0.0066 H         1 <0>         0.1429
     24 H7          0.0474   -2.6270    2.1343 H         1 <0>         0.1504
     25 H8          0.0500   -4.9016   -1.8347 H         1 <0>         0.1658
     26 H9          0.0465   -5.4028   -4.4837 H         1 <0>         0.1648
     27 H10         1.4314   -2.5465   -7.6862 H         1 <0>         0.0928
     28 H11         1.7800   -1.7879   -6.1142 H         1 <0>         0.0855
     29 H12         2.1048   -3.5210   -6.3576 H         1 <0>         0.1113
     30 H13        -1.7971   -2.1013   -6.0837 H         1 <0>         0.4342
     31 H14         0.0075   -1.5968   -8.3438 H         1 <0>         0.1275
     32 H15        -1.3735   -2.7197   -8.3475 H         1 <0>         0.1273
     33 H16        -1.6500   -0.9696   -8.1776 H         1 <0>         0.1307
     34 H17        -0.5187   -1.0618   -6.0803 H         1 <0>         0.4321
@<TRIPOS>BOND
     1    1    2 1
     2    1   19 1
     3    1   20 1
     4    1   21 1
     5    2    7 ar
     6    2    3 ar
     7    3    4 ar
     8    3   22 1
     9    4    5 ar
    10    4    9 1
    11    5    6 ar
    12    5   23 1
    13    6    7 ar
    14    6   24 1
    15    7    8 1
    16    9   13 1
    17    9   10 2
    18   10   11 1
    19   10   25 1
    20   11   12 2
    21   11   26 1
    22   12   13 1
    23   12   14 1
    24   14   15 1
    25   14   16 1
    26   14   17 1
    27   16   27 1
    28   16   28 1
    29   16   29 1
    30   17   18 1
    31   17   30 1
    32   17   34 1
    33   18   31 1
    34   18   32 1
    35   18   33 1
@<TRIPOS>MOLECULE
ZINC37242348
   41    41     0     0     0
SMALL
USER_CHARGES

@<TRIPOS>ATOM
      1 C1         -0.0187    1.5258    0.0104 C.3       1 <0>        -0.1562
      2 C2          0.0021   -0.0041    0.0020 C.3       1 <0>         0.0524
      3 N1          0.7126   -0.4907    1.1921 N.3       1 <0>        -0.6842
      4 C3          0.7524   -1.9589    1.2178 C.3       1 <0>         0.0745
      5 C4         -0.5313   -2.4949    1.8581 C.3       1 <0>        -0.1363
      6 C5         -0.4488   -4.0199    1.9540 C.3       1 <0>        -0.0109
      7 N2          0.7058   -4.4002    2.7767 N.4       1 <0>        -0.3816
      8 C6          1.9460   -3.9518    2.1322 C.3       1 <0>        -0.0072
      9 C7          1.9556   -2.4242    2.0431 C.3       1 <0>        -0.1501
     10 C8          0.7359   -5.8608    2.9303 C.3       1 <0>         0.0265
     11 H1          0.8189   -6.3277    1.9488 H         1 <0>         0.1361
     12 C9          1.9390   -6.2588    3.7877 C.3       1 <0>        -0.1886
     13 C10        -0.5522   -6.3288    3.6104 C.3       1 <0>        -0.1138
     14 C11        -0.5209   -7.8501    3.7704 C.3       1 <0>        -0.1535
     15 C12        -0.6687   -5.6734    4.9881 C.3       1 <0>        -0.1734
     16 H2          1.0039    1.9031    0.0027 H         1 <0>         0.0567
     17 H3         -0.5459    1.8868   -0.8726 H         1 <0>         0.0672
     18 H4         -0.5289    1.8773    0.9072 H         1 <0>         0.0665
     19 H5         -1.0205   -0.3814    0.0098 H         1 <0>         0.0744
     20 H6          0.5123   -0.3556   -0.8948 H         1 <0>         0.0353
     21 H7          1.6427   -0.1028    1.2418 H         1 <0>         0.3515
     22 H8          0.8397   -2.3390    0.2000 H         1 <0>         0.0616
     23 H9         -0.6436   -2.0729    2.8568 H         1 <0>         0.0952
     24 H10        -1.3882   -2.2146    1.2454 H         1 <0>         0.1096
     25 H11        -1.3613   -4.4048    2.4093 H         1 <0>         0.1339
     26 H12        -0.3368   -4.4408    0.9548 H         1 <0>         0.1273
     27 H13         2.8014   -4.2864    2.7190 H         1 <0>         0.1355
     28 H14         2.0069   -4.3742    1.1292 H         1 <0>         0.1280
     29 H15         2.8763   -2.0934    1.5627 H         1 <0>         0.1109
     30 H16         1.8949   -2.0008    3.0457 H         1 <0>         0.0975
     31 H17         1.8560   -5.7919    4.7691 H         1 <0>         0.0842
     32 H18         1.9613   -7.3426    3.9017 H         1 <0>         0.1088
     33 H19         2.8567   -5.9254    3.3031 H         1 <0>         0.0817
     34 H20        -1.4093   -6.0452    2.9996 H         1 <0>         0.0945
     35 H21         0.3362   -8.1336    4.3812 H         1 <0>         0.0703
     36 H22        -1.4386   -8.1834    4.2549 H         1 <0>         0.0772
     37 H23        -0.4379   -8.3170    2.7889 H         1 <0>         0.0672
     38 H24        -0.6910   -4.5896    4.8741 H         1 <0>         0.0503
     39 H25        -1.5864   -6.0068    5.4726 H         1 <0>         0.0849
     40 H26         0.1884   -5.9569    5.5989 H         1 <0>         0.0761
     41 H27         0.6259   -3.9700    3.6859 H         1 <0>         0.4200
@<TRIPOS>BOND
     1    1    2 1
     2    1   16 1
     3    1   17 1
     4    1   18 1
     5    2    3 1
     6    2   19 1
     7    2   20 1
     8    3    4 1
     9    3   21 1
    10    4    9 1
    11    4    5 1
    12    4   22 1
    13    5    6 1
    14    5   23 1
    15    5   24 1
    16    6    7 1
    17    6   25 1
    18    6   26 1
    19    7    8 1
    20    7   10 1
    21    7   41 1
    22    8    9 1
    23    8   27 1
    24    8   28 1
    25    9   29 1
    26    9   30 1
    27   10   11 1
    28   10   12 1
    29   10   13 1
    30   12   31 1
    31   12   32 1
    32   12   33 1
    33   13   14 1
    34   13   15 1
    35   13   34 1
    36   14   35 1
    37   14   36 1
    38   14   37 1
    39   15   38 1
    40   15   39 1
    41   15   40 1
@<TRIPOS>MOLECULE
ZINC41060947
   30    31     0     0     0
SMALL
USER_CHARGES

@<TRIPOS>ATOM
      1 C1         -0.0187    1.5258    0.0104 C.3       1 <0>        -0.1884
      2 C2          0.0021   -0.0041    0.0020 C.3       1 <0>        -0.0135
      3 N1          0.7126   -0.4907    1.1921 N.4       1 <0>        -0.5071
      4 C3          0.7325   -1.9595    1.1840 C.3       1 <0>         0.2038
      5 C4         -0.7029   -2.4891    1.1949 C.3       1 <0>        -0.1734
      6 C5          1.4614   -2.4588    2.4049 C.2       1 <0>        -0.0217
      7 N2          1.6991   -3.6964    2.7612 N.2       1 <0>        -0.4614
      8 C6          2.3564   -3.9771    3.8688 C.2       1 <0>         0.0345
      9 C7          2.7736   -2.9260    4.6199 C.2       1 <0>        -0.1649
     10 S1          2.1736   -1.5609    3.6375 S.3       1 <0>         0.0972
     11 C8          1.4486   -2.4530   -0.0748 C.3       1 <0>        -0.2024
     12 C9          0.6296   -3.2626   -1.0820 C.3       1 <0>        -0.1649
     13 C10         1.6780   -3.9594   -0.2124 C.3       1 <0>        -0.1367
     14 H1          1.0039    1.9031    0.0027 H         1 <0>         0.0817
     15 H2         -0.5459    1.8868   -0.8726 H         1 <0>         0.1114
     16 H3         -0.5289    1.8773    0.9072 H         1 <0>         0.0820
     17 H4         -1.0205   -0.3814    0.0098 H         1 <0>         0.1377
     18 H5          0.5123   -0.3556   -0.8948 H         1 <0>         0.1386
     19 H6          1.6592   -0.1414    1.1850 H         1 <0>         0.4279
     20 H7         -1.2301   -2.1280    0.3118 H         1 <0>         0.0989
     21 H8         -0.6881   -3.5790    1.1889 H         1 <0>         0.1160
     22 H9         -1.2131   -2.1376    2.0917 H         1 <0>         0.0860
     23 H10         2.5536   -4.9967    4.1654 H         1 <0>         0.1921
     24 H11         3.3201   -2.9177    5.5514 H         1 <0>         0.2135
     25 H12         2.2176   -1.7887   -0.4690 H         1 <0>         0.1281
     26 H13        -0.4195   -3.4437   -0.8479 H         1 <0>         0.1130
     27 H14         0.8595   -3.1309   -2.1393 H         1 <0>         0.1129
     28 H15         2.5977   -4.2862   -0.6976 H         1 <0>         0.1089
     29 H16         1.3187   -4.5989    0.5938 H         1 <0>         0.1222
     30 H17         0.2403   -0.1653    2.0223 H         1 <0>         0.4281
@<TRIPOS>BOND
     1    1    2 1
     2    1   14 1
     3    1   15 1
     4    1   16 1
     5    2    3 1
     6    2   17 1
     7    2   18 1
     8    3    4 1
     9    3   19 1
    10    3   30 1
    11    4    5 1
    12    4    6 1
    13    4   11 1
    14    5   20 1
    15    5   21 1
    16    5   22 1
    17    6   10 1
    18    6    7 2
    19    7    8 1
    20    8    9 2
    21    8   23 1
    22    9   10 1
    23    9   24 1
    24   11   13 1
    25   11   12 1
    26   11   25 1
    27   12   13 1
    28   12   26 1
    29   12   27 1
    30   13   28 1
    31   13   29 1
@<TRIPOS>MOLECULE
ZINC44177369
   39    38     0     0     0
SMALL
USER_CHARGES

@<TRIPOS>ATOM
      1 C1          0.1619    0.4721   -0.4178 C.3       1 <0>        -0.1756
      2 C2         -0.9706    0.6212    0.6001 C.3       1 <0>         0.0216
      3 H1         -0.6500    0.2202    1.5616 H         1 <0>         0.1447
      4 C3         -1.3237    2.1016    0.7570 C.3       1 <0>         0.0687
      5 H2         -1.7296    2.4797   -0.1813 H         1 <0>         0.0961
      6 C4         -2.3662    2.2626    1.8652 C.3       1 <0>        -0.2114
      7 O1         -0.1478    2.8381    1.0985 O.3       1 <0>        -0.5490
      8 N1         -2.1510   -0.1167    0.1309 N.4       1 <0>        -0.3803
      9 C5         -2.0093   -1.5376    0.4758 C.3       1 <0>        -0.0167
     10 C6         -2.0433   -1.6991    1.9968 C.3       1 <0>        -0.1193
     11 C7         -3.4169   -1.2789    2.5237 C.3       1 <0>        -0.1701
     12 C8         -1.7836   -3.1624    2.3603 C.3       1 <0>        -0.1511
     13 C9         -2.2691    0.0240   -1.3266 C.3       1 <0>         0.0104
     14 C10        -3.3813   -0.8932   -1.8391 C.3       1 <0>        -0.1842
     15 C11        -2.6050    1.4758   -1.6732 C.3       1 <0>        -0.1912
     16 H3          1.0674    0.9337   -0.0241 H         1 <0>         0.1120
     17 H4          0.3452   -0.5860   -0.6050 H         1 <0>         0.0785
     18 H5         -0.1202    0.9623   -1.3496 H         1 <0>         0.0840
     19 H6         -2.5276    3.3226    2.0610 H         1 <0>         0.0899
     20 H7         -3.3040    1.8041    1.5513 H         1 <0>         0.0614
     21 H8         -2.0097    1.7756    2.7729 H         1 <0>         0.0802
     22 H9         -0.2974    3.7865    1.2140 H         1 <0>         0.4020
     23 H10        -2.8289   -2.1027    0.0320 H         1 <0>         0.1388
     24 H11        -1.0602   -1.9118    0.0919 H         1 <0>         0.1325
     25 H12        -1.2741   -1.0710    2.4462 H         1 <0>         0.0926
     26 H13        -3.4208   -1.3333    3.6123 H         1 <0>         0.0850
     27 H14        -3.6291   -0.2567    2.2103 H         1 <0>         0.0467
     28 H15        -4.1795   -1.9472    2.1238 H         1 <0>         0.0754
     29 H16        -0.8050   -3.4618    1.9850 H         1 <0>         0.0681
     30 H17        -1.8078   -3.2774    3.4440 H         1 <0>         0.0783
     31 H18        -2.5528   -3.7905    1.9109 H         1 <0>         0.0688
     32 H19        -1.3249   -0.2525   -1.7959 H         1 <0>         0.1472
     33 H20        -4.3105   -0.6640   -1.3174 H         1 <0>         0.0794
     34 H21        -3.5172   -0.7365   -2.9092 H         1 <0>         0.1073
     35 H22        -3.1085   -1.9325   -1.6558 H         1 <0>         0.0843
     36 H23        -1.6938    2.0737   -1.6559 H         1 <0>         0.0925
     37 H24        -3.0488    1.5185   -2.6679 H         1 <0>         0.1081
     38 H25        -3.3119    1.8696   -0.9428 H         1 <0>         0.0792
     39 H26        -2.9781    0.2557    0.5728 H         1 <0>         0.4154
@<TRIPOS>BOND
     1    1    2 1
     2    1   16 1
     3    1   17 1
     4    1   18 1
     5    2    3 1
     6    2    4 1
     7    2    8 1
     8    4    5 1
     9    4    6 1
    10    4    7 1
    11    6   19 1
    12    6   20 1
    13    6   21 1
    14    7   22 1
    15    8    9 1
    16    8   13 1
    17    8   39 1
    18    9   10 1
    19    9   23 1
    20    9   24 1
    21   10   11 1
    22   10   12 1
    23   10   25 1
    24   11   26 1
    25   11   27 1
    26   11   28 1
    27   12   29 1
    28   12   30 1
    29   12   31 1
    30   13   14 1
    31   13   15 1
    32   13   32 1
    33   14   33 1
    34   14   34 1
    35   14   35 1
    36   15   36 1
    37   15   37 1
    38   15   38 1
@<TRIPOS>MOLECULE
ZINC54472723
   38    38     0     0     0
SMALL
USER_CHARGES

@<TRIPOS>ATOM
      1 C1          0.0619    1.5389   -2.4296 C.3       1 <0>        -0.1585
      2 C2         -0.1053    0.0181   -2.4174 C.3       1 <0>        -0.1109
      3 C3          0.6837   -0.5723   -1.2471 C.3       1 <0>        -0.0846
      4 H1          1.7230   -0.2499   -1.3100 H         1 <0>         0.0711
      5 C4          0.0784   -0.0880    0.0720 C.3       1 <0>        -0.1540
      6 C5          0.6191   -2.0998   -1.3074 C.3       1 <0>         0.0466
      7 N1          1.3133   -2.5720   -2.5128 N.3       1 <0>        -0.5105
      8 C6          2.7861   -2.5516   -2.3213 C.3       1 <0>         0.0317
      9 C7          3.2984   -3.5310   -3.4070 C.3       1 <0>        -0.1393
     10 C8          2.2191   -4.6378   -3.4111 C.3       1 <0>         0.0139
     11 H2          2.5374   -5.4789   -2.7952 H         1 <0>         0.1461
     12 C9          0.9646   -3.9786   -2.8085 C.3       1 <0>         0.0149
     13 N2          1.9526   -5.0850   -4.7848 N.4       1 <0>        -0.5036
     14 C10         3.1438   -5.7572   -5.3207 C.3       1 <0>        -0.0107
     15 C11         2.8663   -6.2229   -6.7514 C.3       1 <0>        -0.1895
     16 H3         -0.3124    1.9531   -1.4934 H         1 <0>         0.0567
     17 H4          1.1173    1.7875   -2.5407 H         1 <0>         0.0524
     18 H5         -0.5002    1.9595   -3.2634 H         1 <0>         0.0547
     19 H6         -1.1607   -0.2305   -2.3064 H         1 <0>         0.0577
     20 H7          0.2690   -0.3961   -3.3537 H         1 <0>         0.0692
     21 H8         -0.9848   -0.3276    0.0936 H         1 <0>         0.0577
     22 H9          0.5791   -0.5821    0.9046 H         1 <0>         0.0542
     23 H10         0.2095    0.9907    0.1576 H         1 <0>         0.0652
     24 H11         1.0998   -2.5190   -0.4235 H         1 <0>         0.0484
     25 H12        -0.4228   -2.4184   -1.3399 H         1 <0>         0.0814
     26 H13         3.1820   -1.5500   -2.4890 H         1 <0>         0.1046
     27 H14         3.0496   -2.9088   -1.3257 H         1 <0>         0.0637
     28 H15         3.3493   -3.0383   -4.3779 H         1 <0>         0.0971
     29 H16         4.2698   -3.9405   -3.1296 H         1 <0>         0.1047
     30 H17         0.6804   -4.4917   -1.8899 H         1 <0>         0.0835
     31 H18         0.1450   -4.0149   -3.5262 H         1 <0>         0.0982
     32 H19         1.1752   -5.7281   -4.7843 H         1 <0>         0.4282
     33 H20         3.9837   -5.0625   -5.3212 H         1 <0>         0.1305
     34 H21         3.3855   -6.6189   -4.6985 H         1 <0>         0.1304
     35 H22         2.6246   -5.3612   -7.3736 H         1 <0>         0.0811
     36 H23         3.7501   -6.7217   -7.1491 H         1 <0>         0.1073
     37 H24         2.0264   -6.9177   -6.7509 H         1 <0>         0.0808
     38 H25         1.7289   -4.2873   -5.3607 H         1 <0>         0.4296
@<TRIPOS>BOND
     1    1    2 1
     2    1   16 1
     3    1   17 1
     4    1   18 1
     5    2    3 1
     6    2   19 1
     7    2   20 1
     8    3    4 1
     9    3    5 1
    10    3    6 1
    11    5   21 1
    12    5   22 1
    13    5   23 1
    14    6    7 1
    15    6   24 1
    16    6   25 1
    17    7   12 1
    18    7    8 1
    19    8    9 1
    20    8   26 1
    21    8   27 1
    22    9   10 1
    23    9   28 1
    24    9   29 1
    25   10   11 1
    26   10   12 1
    27   10   13 1
    28   12   30 1
    29   12   31 1
    30   13   14 1
    31   13   32 1
    32   13   38 1
    33   14   15 1
    34   14   33 1
    35   14   34 1
    36   15   35 1
    37   15   36 1
    38   15   37 1
@<TRIPOS>MOLECULE
ZINC61989837
   38    38     0     0     0
SMALL
USER_CHARGES

@<TRIPOS>ATOM
      1 C1         -4.8936   -3.3187   -0.6333 C.3       1 <0>        -0.1586
      2 C2         -3.6196   -2.4905   -0.8126 C.3       1 <0>        -0.1417
      3 C3         -2.6456   -2.8003    0.3260 C.3       1 <0>        -0.1639
      4 C4         -1.3242   -2.0693    0.0797 C.3       1 <0>         0.0262
      5 H1         -1.5120   -0.9992   -0.0087 H         1 <0>         0.1436
      6 C5         -0.3738   -2.3252    1.2511 C.3       1 <0>        -0.1500
      7 C6          0.9153   -1.5273    1.0456 C.3       1 <0>        -0.1739
      8 N1         -0.7151   -2.5639   -1.1622 N.4       1 <0>        -0.5021
      9 C7         -0.3329   -3.9722   -0.9931 C.3       1 <0>         0.0018
     10 H2          0.1633   -4.1163   -0.0333 H         1 <0>         0.1521
     11 C8          0.5923   -4.4195   -2.1480 C.3       1 <0>        -0.1404
     12 C9          0.1035   -5.8593   -2.4457 C.3       1 <0>         0.0303
     13 N2         -1.3676   -5.7630   -2.2649 N.3       1 <0>        -0.5158
     14 C10        -1.5737   -4.8786   -1.0946 C.3       1 <0>        -0.0029
     15 C11        -1.9573   -7.0882   -2.0320 C.3       1 <0>         0.0076
     16 H3         -5.5875   -3.0980   -1.4444 H         1 <0>         0.0686
     17 H4         -4.6426   -4.3793   -0.6483 H         1 <0>         0.0591
     18 H5         -5.3582   -3.0687    0.3205 H         1 <0>         0.0661
     19 H6         -3.1550   -2.7405   -1.7664 H         1 <0>         0.0589
     20 H7         -3.8706   -1.4299   -0.7976 H         1 <0>         0.0830
     21 H8         -3.0741   -2.4676    1.2714 H         1 <0>         0.1130
     22 H9         -2.4645   -3.8743    0.3671 H         1 <0>         0.0991
     23 H10        -0.8502   -2.0130    2.1804 H         1 <0>         0.1133
     24 H11        -0.1388   -3.3883    1.3027 H         1 <0>         0.0876
     25 H12         1.3466   -1.7769    0.0762 H         1 <0>         0.0495
     26 H13         0.6920   -0.4609    1.0802 H         1 <0>         0.0750
     27 H14         1.6258   -1.7754    1.8341 H         1 <0>         0.0835
     28 H15        -1.3792   -2.4840   -1.9176 H         1 <0>         0.4283
     29 H16         0.4585   -3.7789   -3.0196 H         1 <0>         0.0976
     30 H17         1.6342   -4.4244   -1.8278 H         1 <0>         0.1064
     31 H18         0.3475   -6.1446   -3.4690 H         1 <0>         0.1059
     32 H19         0.5329   -6.5659   -1.7355 H         1 <0>         0.0639
     33 H20        -1.6721   -5.4763   -0.1884 H         1 <0>         0.0826
     34 H21        -2.4667   -4.2707   -1.2405 H         1 <0>         0.1169
     35 H22        -1.5243   -7.5256   -1.1324 H         1 <0>         0.0389
     36 H23        -3.0353   -6.9890   -1.9052 H         1 <0>         0.0788
     37 H24        -1.7498   -7.7333   -2.8858 H         1 <0>         0.0839
     38 H25         0.1050   -2.0162   -1.3759 H         1 <0>         0.4277
@<TRIPOS>BOND
     1    1    2 1
     2    1   16 1
     3    1   17 1
     4    1   18 1
     5    2    3 1
     6    2   19 1
     7    2   20 1
     8    3    4 1
     9    3   21 1
    10    3   22 1
    11    4    5 1
    12    4    6 1
    13    4    8 1
    14    6    7 1
    15    6   23 1
    16    6   24 1
    17    7   25 1
    18    7   26 1
    19    7   27 1
    20    8    9 1
    21    8   28 1
    22    8   38 1
    23    9   10 1
    24    9   14 1
    25    9   11 1
    26   11   12 1
    27   11   29 1
    28   11   30 1
    29   12   13 1
    30   12   31 1
    31   12   32 1
    32   13   14 1
    33   13   15 1
    34   14   33 1
    35   14   34 1
    36   15   35 1
    37   15   36 1
    38   15   37 1
@<TRIPOS>MOLECULE
ZINC04950494
   43    45     0     0     0
SMALL
USER_CHARGES
(1R,5S,6R)-6-(1-methylpiperidin-1-ium-1-yl)bicyclo[3.3.1]nonan-9-one
@<TRIPOS>ATOM
      1 C1         -4.9964    3.2475   -1.0197 C.3       1 <0>        -0.0672
      2 N1         -3.6544    3.8207   -1.1886 N.4       1 <0>        -0.2636
      3 C2         -2.9798    3.1570   -2.3106 C.3       1 <0>        -0.0325
      4 C3         -3.8265    3.3008   -3.5770 C.3       1 <0>        -0.1475
      5 C4         -4.0091    4.7874   -3.8963 C.3       1 <0>        -0.1368
      6 C5         -4.6458    5.4840   -2.6903 C.3       1 <0>        -0.1473
      7 C6         -3.7687    5.2593   -1.4567 C.3       1 <0>        -0.0074
      8 C7         -2.8768    3.6134    0.0403 C.3       1 <0>         0.0456
      9 H1         -3.1796    4.3919    0.7584 H         1 <0>         0.1445
     10 C8         -1.3989    3.7798   -0.2613 C.3       1 <0>        -0.1485
     11 C9         -0.7562    2.6150   -0.9891 C.3       1 <0>        -0.1398
     12 C10        -1.1154    1.2543   -0.3999 C.3       1 <0>        -0.1202
     13 H2         -0.7753    0.5307   -1.0006 H         1 <0>         0.0997
     14 C11        -0.5111    1.0829    0.9919 C.3       1 <0>        -0.1143
     15 C12        -1.0981    2.0411    2.0131 C.3       1 <0>        -0.1342
     16 C13        -2.6156    2.0893    2.0246 C.3       1 <0>        -0.1063
     17 C14        -3.2208    2.2487    0.6320 C.3       1 <0>        -0.1442
     18 H3         -4.2144    2.1511    0.6893 H         1 <0>         0.1082
     19 C15        -2.6259    1.1804   -0.2671 C.2       1 <0>         0.3557
     20 O1         -3.2931    0.3459   -0.8258 O.2       1 <0>        -0.4206
     21 H4         -5.4504    3.6466   -0.1127 H         1 <0>         0.1249
     22 H5         -5.6135    3.5075   -1.8797 H         1 <0>         0.1309
     23 H6         -4.9209    2.1629   -0.9413 H         1 <0>         0.1246
     24 H7         -2.0050    3.6175   -2.4716 H         1 <0>         0.1441
     25 H8         -2.8476    2.0998   -2.0805 H         1 <0>         0.1239
     26 H9         -4.8015    2.8404   -3.4172 H         1 <0>         0.0883
     27 H10        -3.3237    2.8088   -4.4096 H         1 <0>         0.1111
     28 H11        -4.6584    4.8965   -4.7650 H         1 <0>         0.0955
     29 H12        -3.0393    5.2379   -4.1074 H         1 <0>         0.0823
     30 H13        -5.6378    5.0689   -2.5121 H         1 <0>         0.0897
     31 H14        -4.7280    6.5526   -2.8888 H         1 <0>         0.1128
     32 H15        -4.2191    5.7541   -0.5963 H         1 <0>         0.1294
     33 H16        -2.7772    5.6749   -1.6364 H         1 <0>         0.1279
     34 H17        -0.8446    4.0315    0.6397 H         1 <0>         0.1249
     35 H18        -1.2974    4.6725   -0.9161 H         1 <0>         0.0858
     36 H19         0.3367    2.7361   -0.9634 H         1 <0>         0.1016
     37 H20        -1.0541    2.6383   -2.0460 H         1 <0>         0.0838
     38 H21        -0.6764    0.0514    1.3294 H         1 <0>         0.0751
     39 H22         0.5739    1.2372    0.9337 H         1 <0>         0.0880
     40 H23        -0.7708    1.6960    3.0160 H         1 <0>         0.0788
     41 H24        -0.6764    3.0356    1.9017 H         1 <0>         0.0774
     42 H25        -2.9442    2.9255    2.6558 H         1 <0>         0.0887
     43 H26        -3.0014    1.1676    2.4796 H         1 <0>         0.0873
@<TRIPOS>BOND
     1    1    2 1
     2    1   21 1
     3    1   22 1
     4    1   23 1
     5    2    7 1
     6    2    3 1
     7    2    8 1
     8    3    4 1
     9    3   24 1
    10    3   25 1
    11    4    5 1
    12    4   26 1
    13    4   27 1
    14    5    6 1
    15    5   28 1
    16    5   29 1
    17    6    7 1
    18    6   30 1
    19    6   31 1
    20    7   32 1
    21    7   33 1
    22    8    9 1
    23    8   17 1
    24    8   10 1
    25   10   11 1
    26   10   34 1
    27   10   35 1
    28   11   12 1
    29   11   36 1
    30   11   37 1
    31   12   13 1
    32   12   19 1
    33   12   14 1
    34   14   15 1
    35   14   38 1
    36   14   39 1
    37   15   16 1
    38   15   40 1
    39   15   41 1
    40   16   17 1
    41   16   42 1
    42   16   43 1
    43   17   18 1
    44   17   19 1
    45   19   20 2
@<TRIPOS>MOLECULE
ZINC38524672
   39    40     0     0     0
SMALL
USER_CHARGES

@<TRIPOS>ATOM
      1 C1         -0.0187    1.5258    0.0104 C.3       1 <0>        -0.1475
      2 C2          0.0021   -0.0041    0.0020 C.3       1 <0>        -0.1258
      3 C3          0.7182   -0.4975   -1.2568 C.3       1 <0>         0.1273
      4 H1          0.2564   -0.0577   -2.1408 H         1 <0>         0.1037
      5 C4          0.6386   -2.0104   -1.3339 C.2       1 <0>         0.0786
      6 N1         -0.4152   -2.7352   -1.3707 N.pl3     1 <0>        -0.1444
      7 O1         -1.6939   -2.1276   -1.3390 O.3       1 <0>        -0.5120
      8 C5         -0.2990   -4.1937   -1.4457 C.3       1 <0>         0.0135
      9 C6          2.0899   -2.4782   -1.3589 C.3       1 <0>        -0.1243
     10 C7          2.8356   -1.2087   -1.8202 C.3       1 <0>         0.0952
     11 O2          2.1088   -0.1334   -1.2010 O.3       1 <0>        -0.3396
     12 C8          2.7831   -1.0874   -3.3381 C.3       1 <0>        -0.1655
     13 C9          3.5798    0.1453   -3.7757 C.3       1 <0>        -0.0022
     14 N2          4.9688    0.0199   -3.3174 N.4       1 <0>        -0.3849
     15 C10         5.0131    0.0034   -1.8503 C.3       1 <0>        -0.0053
     16 C11         4.2780   -1.2354   -1.3299 C.3       1 <0>        -0.1315
     17 C12         5.7516    1.1585   -3.8161 C.3       1 <0>        -0.0470
     18 H2          1.0039    1.9031    0.0027 H         1 <0>         0.0570
     19 H3         -0.5459    1.8868   -0.8726 H         1 <0>         0.0569
     20 H4         -0.5289    1.8773    0.9072 H         1 <0>         0.0636
     21 H5          0.5293   -0.3651    0.8851 H         1 <0>         0.0705
     22 H6         -1.0205   -0.3814    0.0098 H         1 <0>         0.1048
     23 H7          0.7543   -4.4739   -1.4605 H         1 <0>         0.0965
     24 H8         -0.7820   -4.6417   -0.5773 H         1 <0>         0.1179
     25 H9         -0.7827   -4.5505   -2.3550 H         1 <0>         0.1158
     26 H10         2.4173   -2.7804   -0.3641 H         1 <0>         0.1236
     27 H11         2.2240   -3.2887   -2.0754 H         1 <0>         0.1109
     28 H12         3.2166   -1.9798   -3.7896 H         1 <0>         0.1041
     29 H13         1.7467   -0.9835   -3.6592 H         1 <0>         0.1165
     30 H14         3.5617    0.2224   -4.8628 H         1 <0>         0.1350
     31 H15         3.1333    1.0395   -3.3409 H         1 <0>         0.1364
     32 H16         6.0510   -0.0241   -1.5186 H         1 <0>         0.1361
     33 H17         4.5316    0.9010   -1.4623 H         1 <0>         0.1373
     34 H18         4.2918   -1.2356   -0.2400 H         1 <0>         0.1260
     35 H19         4.7716   -2.1338   -1.7005 H         1 <0>         0.1067
     36 H20         5.3252    2.0869   -3.4361 H         1 <0>         0.1232
     37 H21         6.7832    1.0667   -3.4766 H         1 <0>         0.1252
     38 H22         5.7271    1.1668   -4.9058 H         1 <0>         0.1245
     39 H23         5.3630   -0.8377   -3.6741 H         1 <0>         0.4230
@<TRIPOS>BOND
     1    1    2 1
     2    1   18 1
     3    1   19 1
     4    1   20 1
     5    2    3 1
     6    2   21 1
     7    2   22 1
     8    3    4 1
     9    3   11 1
    10    3    5 1
    11    5    6 2
    12    5    9 1
    13    6    7 1
    14    6    8 1
    15    8   23 1
    16    8   24 1
    17    8   25 1
    18    9   10 1
    19    9   26 1
    20    9   27 1
    21   10   16 1
    22   10   11 1
    23   10   12 1
    24   12   13 1
    25   12   28 1
    26   12   29 1
    27   13   14 1
    28   13   30 1
    29   13   31 1
    30   14   15 1
    31   14   17 1
    32   14   39 1
    33   15   16 1
    34   15   32 1
    35   15   33 1
    36   16   34 1
    37   16   35 1
    38   17   36 1
    39   17   37 1
    40   17   38 1
@<TRIPOS>MOLECULE
ZINC43373209
   27    28     0     0     0
SMALL
USER_CHARGES

@<TRIPOS>ATOM
      1 C1         -0.0187    1.5260    0.0104 C.3       1 <0>        -0.1402
      2 C2          1.4200    2.0506   -0.0005 C.3       1 <0>        -0.1604
      3 C3          2.1493    1.4868   -1.2234 C.3       1 <0>         0.1705
      4 H1          1.6682    1.8477   -2.1325 H         1 <0>         0.1181
      5 C4          2.0897   -0.0418   -1.1861 C.3       1 <0>        -0.0318
      6 N1          0.6893   -0.4811   -1.2041 N.4       1 <0>        -0.4977
      7 C5          0.0021   -0.0041    0.0020 C.3       1 <0>        -0.0123
      8 N2          3.5476    1.9234   -1.2034 N.am      1 <0>        -0.6376
      9 C6          4.2212    2.7340   -2.2371 C.3       1 <0>         0.0635
     10 C7          5.5098    3.1862   -1.5100 C.3       1 <0>         0.0371
     11 O1          5.6644    2.1620   -0.5083 O.3       1 <0>        -0.3151
     12 C8          4.4471    1.6621   -0.2363 C.2       1 <0>         0.6466
     13 O2          4.1865    1.0382    0.7733 O.2       1 <0>        -0.5088
     14 H2         -0.5277    1.8781    0.9076 H         1 <0>         0.1199
     15 H3         -0.5447    1.8877   -0.8730 H         1 <0>         0.0916
     16 H4          1.4106    3.1394   -0.0516 H         1 <0>         0.0989
     17 H5          1.9312    1.7317    0.9078 H         1 <0>         0.1001
     18 H6          2.6082   -0.4465   -2.0553 H         1 <0>         0.1372
     19 H7          2.5712   -0.4016   -0.2768 H         1 <0>         0.1448
     20 H8          0.2309   -0.1067   -2.0214 H         1 <0>         0.4275
     21 H9          0.5281   -0.3647    0.8860 H         1 <0>         0.1345
     22 H10        -1.0207   -0.3809    0.0100 H         1 <0>         0.1391
     23 H11         4.4610    2.1277   -3.1106 H         1 <0>         0.0974
     24 H12         3.6109    3.5931   -2.5154 H         1 <0>         0.1072
     25 H13         6.3595    3.1944   -2.1927 H         1 <0>         0.1307
     26 H14         5.3736    4.1644   -1.0487 H         1 <0>         0.1018
     27 H15         0.6543   -1.4890   -1.2335 H         1 <0>         0.4373
@<TRIPOS>BOND
     1    1    7 1
     2    1    2 1
     3    1   14 1
     4    1   15 1
     5    2    3 1
     6    2   16 1
     7    2   17 1
     8    3    4 1
     9    3    5 1
    10    3    8 1
    11    5    6 1
    12    5   18 1
    13    5   19 1
    14    6    7 1
    15    6   20 1
    16    6   27 1
    17    7   21 1
    18    7   22 1
    19    8   12 am
    20    8    9 1
    21    9   10 1
    22    9   23 1
    23    9   24 1
    24   10   11 1
    25   10   25 1
    26   10   26 1
    27   11   12 1
    28   12   13 2
@<TRIPOS>MOLECULE
ZINC50104791
   35    36     0     0     0
SMALL
USER_CHARGES

@<TRIPOS>ATOM
      1 C1         -0.0188    1.5335    0.0105 C.3       1 <0>        -0.1497
      2 C2          1.4289    2.0809   -0.0004 C.3       1 <0>        -0.5739
      3 S1          2.3583    0.7478   -0.8615 S.o2      1 <0>         2.3905
      4 O1          2.7805    1.2249   -2.1317 O.2       1 <0>        -0.9026
      5 O2          3.3165    0.2000    0.0335 O.2       1 <0>        -0.9033
      6 C3          0.9956   -0.4689   -1.1008 C.3       1 <0>        -0.6293
      7 C4          0.0021   -0.0041    0.0020 C.3       1 <0>         0.0207
      8 H1          0.3313   -0.3731    0.9734 H         1 <0>         0.1609
      9 N1         -1.3425   -0.5169   -0.2933 N.4       1 <0>        -0.3728
     10 C5         -1.3124   -1.9843   -0.3084 C.3       1 <0>        -0.0093
     11 C6         -2.6916   -2.5225   -0.6952 C.3       1 <0>        -0.1414
     12 C7         -3.7260   -2.0420    0.3268 C.3       1 <0>        -0.1028
     13 C8         -3.6963   -0.5122    0.3879 C.3       1 <0>        -0.1374
     14 C9         -2.2798   -0.0484    0.7345 C.3       1 <0>        -0.0161
     15 C10        -5.1196   -2.5102   -0.0970 C.3       1 <0>         0.0783
     16 O3         -6.0671   -2.1624    0.9147 O.3       1 <0>        -0.5740
     17 H2         -0.5313    1.8835    0.9065 H         1 <0>         0.1230
     18 H3         -0.5483    1.8930   -0.8718 H         1 <0>         0.1097
     19 H4          1.4848    3.0146   -0.5601 H         1 <0>         0.1619
     20 H5          1.7988    2.2155    1.0160 H         1 <0>         0.1560
     21 H6          0.5543   -0.3764   -2.0932 H         1 <0>         0.1610
     22 H7          1.3394   -1.4869   -0.9179 H         1 <0>         0.1666
     23 H8         -0.5735   -2.3247   -1.0338 H         1 <0>         0.1365
     24 H9         -1.0441   -2.3520    0.6820 H         1 <0>         0.1339
     25 H10        -2.9609   -2.1557   -1.6856 H         1 <0>         0.0918
     26 H11        -2.6677   -3.6122   -0.7040 H         1 <0>         0.1175
     27 H12        -3.4858   -2.4507    1.3083 H         1 <0>         0.0980
     28 H13        -3.9864   -0.1035   -0.5801 H         1 <0>         0.0879
     29 H14        -4.3905   -0.1649    1.1531 H         1 <0>         0.1216
     30 H15        -1.9909   -0.4573    1.7027 H         1 <0>         0.1337
     31 H16        -2.2552    1.0404    0.7790 H         1 <0>         0.1354
     32 H17        -5.3956   -2.0275   -1.0345 H         1 <0>         0.0520
     33 H18        -5.1139   -3.5916   -0.2331 H         1 <0>         0.0571
     34 H19        -6.9742   -2.4294    0.7125 H         1 <0>         0.3942
     35 H20        -1.6392   -0.1793   -1.1967 H         1 <0>         0.4240
@<TRIPOS>BOND
     1    1    7 1
     2    1    2 1
     3    1   17 1
     4    1   18 1
     5    2    3 1
     6    2   19 1
     7    2   20 1
     8    3    4 2
     9    3    5 2
    10    3    6 1
    11    6    7 1
    12    6   21 1
    13    6   22 1
    14    7    8 1
    15    7    9 1
    16    9   14 1
    17    9   10 1
    18    9   35 1
    19   10   11 1
    20   10   23 1
    21   10   24 1
    22   11   12 1
    23   11   25 1
    24   11   26 1
    25   12   13 1
    26   12   15 1
    27   12   27 1
    28   13   14 1
    29   13   28 1
    30   13   29 1
    31   14   30 1
    32   14   31 1
    33   15   16 1
    34   15   32 1
    35   15   33 1
    36   16   34 1
@<TRIPOS>MOLECULE
ZINC59382516
   37    37     0     0     0
SMALL
USER_CHARGES

@<TRIPOS>ATOM
      1 C1         -0.0187    1.5258    0.0104 C.3       1 <0>        -0.1500
      2 C2          0.0021   -0.0041    0.0020 C.3       1 <0>        -0.0511
      3 C3          0.7309   -0.5033    1.2229 C.2       1 <0>        -0.1096
      4 C4          0.2352   -0.8058    2.4461 C.2       1 <0>        -0.1534
      5 C5          1.0988   -1.2527    3.4303 C.2       1 <0>        -0.1532
      6 C6          2.4239   -1.3739    3.1345 C.2       1 <0>        -0.1741
      7 S1          2.4690   -0.8556    1.4267 S.3       1 <0>         0.1195
      8 S2          3.7472   -1.9093    4.1673 S.3       1 <0>        -0.0180
      9 C7          5.2077   -1.8103    3.0960 C.3       1 <0>        -0.1262
     10 C8          6.4453   -2.2538    3.8786 C.3       1 <0>        -0.1424
     11 C9          0.5841   -1.5986    4.8038 C.3       1 <0>         0.0596
     12 N1          0.8473   -0.4817    5.7209 N.4       1 <0>        -0.2669
     13 C10         0.1657    0.7244    5.2320 C.3       1 <0>        -0.0455
     14 C11         0.3456   -0.8188    7.0598 C.3       1 <0>        -0.0457
     15 C12         2.2936   -0.2335    5.7881 C.3       1 <0>        -0.0572
     16 H1          1.0039    1.9031    0.0027 H         1 <0>         0.0588
     17 H2         -0.5459    1.8868   -0.8726 H         1 <0>         0.0730
     18 H3         -0.5289    1.8773    0.9072 H         1 <0>         0.0589
     19 H4         -1.0205   -0.3814    0.0098 H         1 <0>         0.0961
     20 H5          0.5123   -0.3556   -0.8948 H         1 <0>         0.0870
     21 H6         -0.8198   -0.6993    2.6507 H         1 <0>         0.1453
     22 H7          5.0704   -2.4622    2.2333 H         1 <0>         0.0978
     23 H8          5.3409   -0.7828    2.7573 H         1 <0>         0.0987
     24 H9          6.5827   -1.6018    4.7413 H         1 <0>         0.0702
     25 H10         6.3121   -3.2812    4.2173 H         1 <0>         0.0715
     26 H11         7.3229   -2.1943    3.2349 H         1 <0>         0.0886
     27 H12        -0.4891   -1.7827    4.7539 H         1 <0>         0.1354
     28 H13         1.0898   -2.4935    5.1665 H         1 <0>         0.1321
     29 H14        -0.9075    0.5403    5.1822 H         1 <0>         0.1200
     30 H15         0.3610    1.5531    5.9125 H         1 <0>         0.1206
     31 H16         0.5380    0.9746    4.2386 H         1 <0>         0.1192
     32 H17         0.8513   -1.7137    7.4226 H         1 <0>         0.1211
     33 H18         0.5408    0.0099    7.7403 H         1 <0>         0.1231
     34 H19        -0.7276   -1.0029    7.0099 H         1 <0>         0.1212
     35 H20         2.6658    0.0167    4.7947 H         1 <0>         0.1282
     36 H21         2.4888    0.5952    6.4686 H         1 <0>         0.1220
     37 H22         2.7993   -1.1284    6.1509 H         1 <0>         0.1256
@<TRIPOS>BOND
     1    1    2 1
     2    1   16 1
     3    1   17 1
     4    1   18 1
     5    2    3 1
     6    2   19 1
     7    2   20 1
     8    3    7 1
     9    3    4 2
    10    4    5 1
    11    4   21 1
    12    5    6 2
    13    5   11 1
    14    6    7 1
    15    6    8 1
    16    8    9 1
    17    9   10 1
    18    9   22 1
    19    9   23 1
    20   10   24 1
    21   10   25 1
    22   10   26 1
    23   11   12 1
    24   11   27 1
    25   11   28 1
    26   12   13 1
    27   12   14 1
    28   12   15 1
    29   13   29 1
    30   13   30 1
    31   13   31 1
    32   14   32 1
    33   14   33 1
    34   14   34 1
    35   15   35 1
    36   15   36 1
    37   15   37 1
@<TRIPOS>MOLECULE
ZINC07926940
   37    38     0     0     0
SMALL
USER_CHARGES
N-(2-chloro-4-nitro-phenyl)-2-(methyl-(3-thienylmethyl)amino)-acetamide
@<TRIPOS>ATOM
      1 C1         -0.6394    3.0209   -1.2740 C.3       1 <0>        -0.0550
      2 C2         -0.0290    1.0625    0.0122 C.3       1 <0>         0.0649
      3 C3         -0.7361    1.5480    1.2513 C.2       1 <0>        -0.1920
      4 C4         -0.3814    2.7492    1.8362 C.2       1 <0>        -0.1684
      5 C5         -1.0411    3.1597    2.9468 C.2       1 <0>        -0.1532
      6 S1         -2.1954    1.8226    3.2060 S.3       1 <0>         0.1296
      7 C6         -1.7256    0.8107    1.8121 C.2       1 <0>        -0.1529
      8 C7         -0.2193    0.9174   -2.3972 C.3       1 <0>        -0.0255
      9 C8         -1.1161    1.2584   -3.5593 C.2       1 <0>         0.5075
     10 O1         -2.0868    1.9655   -3.3892 O.2       1 <0>        -0.4975
     11 N1         -0.8394    0.7778   -4.7877 N.am      1 <0>        -0.6455
     12 C9         -1.7327    0.9974   -5.8428 C.ar      1 <0>         0.1920
     13 C10        -3.0770    1.2256   -5.5803 C.ar      1 <0>        -0.1155
     14 C11        -3.9560    1.4420   -6.6234 C.ar      1 <0>        -0.0248
     15 C12        -3.4991    1.4316   -7.9287 C.ar      1 <0>        -0.0375
     16 C13        -2.1614    1.2048   -8.1944 C.ar      1 <0>        -0.0213
     17 C14        -1.2752    0.9933   -7.1548 C.ar      1 <0>        -0.0661
     18 Cl1         0.4056    0.7156   -7.4884 Cl        1 <0>        -0.0208
     19 N2         -4.4444    1.6644   -9.0437 N.pl3     1 <0>         0.0218
     20 O2         -5.6231    1.8648   -8.8112 O.2       1 <0>        -0.1402
     21 O3         -4.0435    1.6557  -10.1938 O.3       1 <0>        -0.1406
     22 H1          0.4081    3.3152   -1.3389 H         1 <0>         0.1232
     23 H2         -1.1681    3.3612   -2.1644 H         1 <0>         0.1330
     24 H3         -1.0894    3.4719   -0.3896 H         1 <0>         0.1278
     25 H4         -0.0208   -0.0274    0.0021 H         1 <0>         0.1376
     26 H5          0.9959    1.4336    0.0098 H         1 <0>         0.1410
     27 H6          0.4069    3.3536    1.4122 H         1 <0>         0.1433
     28 H7         -0.9013    4.0596    3.5274 H         1 <0>         0.1978
     29 H8         -2.1258   -0.1418    1.4976 H         1 <0>         0.1968
     30 H9          0.7898    1.2765   -2.5994 H         1 <0>         0.1693
     31 H10        -0.1994   -0.1635   -2.2586 H         1 <0>         0.1680
     32 H11        -0.0213    0.2796   -4.9407 H         1 <0>         0.4283
     33 H12        -3.4348    1.2342   -4.5613 H         1 <0>         0.1753
     34 H13        -5.0016    1.6198   -6.4194 H         1 <0>         0.1705
     35 H14        -1.8077    1.1978   -9.2148 H         1 <0>         0.1754
     36 N3         -0.7597    1.5510   -1.1760 N.4       1 <0>        -0.3822
     37 H15        -1.7517    1.3031   -1.0828 H         1 <0>         0.4355
@<TRIPOS>BOND
     1    1   22 1
     2    1   23 1
     3    1   24 1
     4    1   36 1
     5    2    3 1
     6    2   25 1
     7    2   26 1
     8    2   36 1
     9    3    7 2
    10    3    4 1
    11    4    5 2
    12    4   27 1
    13    5    6 1
    14    5   28 1
    15    6    7 1
    16    7   29 1
    17    8    9 1
    18    8   30 1
    19    8   31 1
    20    8   36 1
    21    9   10 2
    22    9   11 am
    23   11   12 1
    24   11   32 1
    25   12   17 ar
    26   12   13 ar
    27   13   14 ar
    28   13   33 1
    29   14   15 ar
    30   14   34 1
    31   15   16 ar
    32   15   19 1
    33   16   17 ar
    34   16   35 1
    35   17   18 1
    36   19   20 2
    37   19   21 1
    38   36   37 1
@<TRIPOS>MOLECULE
ZINC29453912
   40    42     0     0     0
SMALL
USER_CHARGES
2-[(3-cyclopropyl-1,2,4-oxadiazol-5-yl)methyl-methyl-amino]-N-(3,4-dichlorophenyl)acetamide
@<TRIPOS>ATOM
      1 C1          5.4716   -0.9109   -4.5537 C.3       1 <0>        -0.0622
      2 N1          5.8287    0.1770   -3.6335 N.4       1 <0>        -0.3937
      3 C2          4.8461    1.2670   -3.7005 C.3       1 <0>         0.1098
      4 C3          3.5184    0.7791   -3.1808 C.2       1 <0>         0.0942
      5 N2          3.0979    0.8330   -1.9399 N.2       1 <0>        -0.4310
      6 C4          1.8702    0.2838   -1.9495 C.2       1 <0>         0.1916
      7 N3          1.6084   -0.0625   -3.1743 N.2       1 <0>        -0.3534
      8 O1          2.5424    0.2134   -3.8974 O.3       1 <0>         0.1075
      9 C5          0.9623    0.1083   -0.7596 C.3       1 <0>        -0.1768
     10 C6         -0.4002    0.8031   -0.8019 C.3       1 <0>        -0.0936
     11 C7         -0.3111   -0.7163   -0.9581 C.3       1 <0>        -0.0978
     12 C8          7.1844    0.6730   -3.9054 C.3       1 <0>        -0.0251
     13 C9          8.1870   -0.4070   -3.5900 C.2       1 <0>         0.5053
     14 O2          7.8094   -1.4838   -3.1791 O.2       1 <0>        -0.5114
     15 N4          9.5034   -0.1763   -3.7645 N.am      1 <0>        -0.6568
     16 C10        10.4409   -1.1372   -3.3684 C.ar      1 <0>         0.1448
     17 C11        10.1944   -1.9328   -2.2570 C.ar      1 <0>        -0.1023
     18 C12        11.1175   -2.8849   -1.8718 C.ar      1 <0>        -0.0770
     19 C13        12.2937   -3.0385   -2.5844 C.ar      1 <0>        -0.0354
     20 C14        12.5453   -2.2426   -3.6893 C.ar      1 <0>        -0.0138
     21 C15        11.6212   -1.2927   -4.0826 C.ar      1 <0>        -0.1149
     22 Cl1        14.0217   -2.4383   -4.5814 Cl        1 <0>        -0.0261
     23 Cl2        13.4555   -4.2311   -2.0927 Cl        1 <0>        -0.0293
     24 H1          6.2223   -1.7119   -4.4834 H         1 <0>         0.1465
     25 H2          5.4422   -0.5253   -5.5835 H         1 <0>         0.1294
     26 H3          4.4829   -1.3101   -4.2833 H         1 <0>         0.1212
     27 H4          5.1925    2.1112   -3.0862 H         1 <0>         0.1768
     28 H5          4.7331    1.5952   -4.7443 H         1 <0>         0.1694
     29 H6          1.8094    0.0859   -0.0582 H         1 <0>         0.1453
     30 H7         -0.5715    1.3323    0.1471 H         1 <0>         0.1224
     31 H8         -0.4184    1.5243   -1.6323 H         1 <0>         0.1024
     32 H9         -0.2557   -1.2512   -1.9177 H         1 <0>         0.1089
     33 H10        -0.4088   -1.4432   -0.1383 H         1 <0>         0.1214
     34 H11         7.2670    0.9515   -4.9663 H         1 <0>         0.1697
     35 H12         7.3851    1.5542   -3.2783 H         1 <0>         0.1724
     36 H13         9.8410    0.7672   -4.2182 H         1 <0>         0.4523
     37 H14         9.2790   -1.8101   -1.6971 H         1 <0>         0.1469
     38 H15        10.9236   -3.5068   -1.0104 H         1 <0>         0.1521
     39 H16        11.8173   -0.6720   -4.9444 H         1 <0>         0.1504
     40 H17         5.8157   -0.2276   -2.6107 H         1 <0>         0.4596
@<TRIPOS>BOND
     1    1    2 1
     2    1   24 1
     3    1   25 1
     4    1   26 1
     5    2    3 1
     6    2   12 1
     7    2   40 1
     8    3    4 1
     9    3   27 1
    10    3   28 1
    11    4    8 1
    12    4    5 2
    13    5    6 1
    14    6    7 2
    15    6    9 1
    16    7    8 1
    17    9   11 1
    18    9   10 1
    19    9   29 1
    20   10   11 1
    21   10   30 1
    22   10   31 1
    23   11   32 1
    24   11   33 1
    25   12   13 1
    26   12   34 1
    27   12   35 1
    28   13   14 2
    29   13   15 am
    30   15   16 1
    31   15   36 1
    32   16   21 ar
    33   16   17 ar
    34   17   18 ar
    35   17   37 1
    36   18   19 ar
    37   18   38 1
    38   19   20 ar
    39   19   23 1
    40   20   21 ar
    41   20   22 1
    42   21   39 1
@<TRIPOS>MOLECULE
ZINC44933882
   52    54     0     0     0
SMALL
USER_CHARGES

@<TRIPOS>ATOM
      1 C1          8.5848    1.7570    0.4942 C.3       1 <0>        -0.1111
      2 C2          7.4801    0.7374    0.3880 C.2       1 <0>         0.2028
      3 C3          6.1866    1.1297    0.1162 C.2       1 <0>        -0.2729
      4 C4          5.1784    0.1701    0.0215 C.2       1 <0>         0.5411
      5 O1          4.0303    0.5108   -0.2195 O.2       1 <0>        -0.4976
      6 N1          5.4769   -1.1509    0.1982 N.am      1 <0>        -0.3623
      7 C5          6.7831   -1.4513    0.4638 C.2       1 <0>         0.3206
      8 N2          7.7365   -0.5583    0.5494 N.2       1 <0>        -0.4748
      9 S1          6.7491   -3.2234    0.6223 S.3       1 <0>         0.1221
     10 C6          5.0033   -3.4526    0.3259 C.2       1 <0>         0.3459
     11 N3          4.5954   -2.2261    0.1377 N.2       1 <0>        -0.3048
     12 N4          4.2714   -4.6268    0.3012 N.pl3     1 <0>        -0.6802
     13 C7          4.9366   -5.9098    0.5412 C.3       1 <0>         0.0880
     14 C8          3.8882   -7.0216    0.6169 C.3       1 <0>         0.0198
     15 H1          3.1862   -6.8049    1.4221 H         1 <0>         0.1536
     16 C9          4.5809   -8.3581    0.8901 C.3       1 <0>        -0.1089
     17 C10         3.6097   -9.5045    0.6011 C.3       1 <0>        -0.1751
     18 C11         5.8089   -8.4901   -0.0129 C.3       1 <0>        -0.1874
     19 N5          3.1625   -7.0979   -0.6581 N.4       1 <0>        -0.3862
     20 C12         1.8018   -6.5781   -0.4767 C.3       1 <0>        -0.0109
     21 C13         1.0156   -6.7300   -1.7807 C.3       1 <0>        -0.1423
     22 C14         1.7205   -5.9437   -2.8898 C.3       1 <0>        -0.1062
     23 C15         3.1621   -6.4440   -3.0196 C.3       1 <0>        -0.1401
     24 C16         3.8687   -6.3027   -1.6697 C.3       1 <0>        -0.0455
     25 C17         0.9843   -6.1555   -4.2142 C.3       1 <0>        -0.1533
     26 H2          9.5266    1.2514    0.7074 H         1 <0>         0.0894
     27 H3          8.6691    2.3006   -0.4468 H         1 <0>         0.0973
     28 H4          8.3575    2.4564    1.2987 H         1 <0>         0.0974
     29 H5          5.9548    2.1754   -0.0225 H         1 <0>         0.1768
     30 H6          3.3179   -4.6004    0.1249 H         1 <0>         0.4172
     31 H7          5.6290   -6.1183   -0.2744 H         1 <0>         0.1144
     32 H8          5.4860   -5.8639    1.4815 H         1 <0>         0.1256
     33 H9          4.8915   -8.3996    1.9341 H         1 <0>         0.1269
     34 H10         4.0309  -10.4394    0.9706 H         1 <0>         0.0980
     35 H11         2.6604   -9.3111    1.1005 H         1 <0>         0.0739
     36 H12         3.4460   -9.5796   -0.4740 H         1 <0>         0.0582
     37 H13         6.1677   -7.4976   -0.2856 H         1 <0>         0.0716
     38 H14         6.5946   -9.0272    0.5184 H         1 <0>         0.0894
     39 H15         5.5393   -9.0395   -0.9149 H         1 <0>         0.0704
     40 H16         1.3026   -7.1365    0.3152 H         1 <0>         0.1372
     41 H17         1.8495   -5.5242   -0.2024 H         1 <0>         0.1206
     42 H18         0.9671   -7.7835   -2.0558 H         1 <0>         0.0911
     43 H19         0.0063   -6.3418   -1.6445 H         1 <0>         0.1162
     44 H20         1.7240   -4.8830   -2.6390 H         1 <0>         0.0893
     45 H21         3.1581   -7.4917   -3.3204 H         1 <0>         0.0884
     46 H22         3.6869   -5.8515   -3.7690 H         1 <0>         0.1134
     47 H23         3.8723   -5.2548   -1.3700 H         1 <0>         0.1467
     48 H24         4.8954   -6.6578   -1.7586 H         1 <0>         0.1329
     49 H25        -0.0436   -5.8056   -4.1185 H         1 <0>         0.0686
     50 H26         1.4868   -5.5955   -5.0029 H         1 <0>         0.0681
     51 H27         0.9851   -7.2163   -4.4648 H         1 <0>         0.0625
     52 H28         3.1155   -8.0595   -0.9601 H         1 <0>         0.4244
@<TRIPOS>BOND
     1    1    2 1
     2    1   26 1
     3    1   27 1
     4    1   28 1
     5    2    8 1
     6    2    3 2
     7    3    4 1
     8    3   29 1
     9    4    5 2
    10    4    6 am
    11    6   11 1
    12    6    7 1
    13    7    8 2
    14    7    9 1
    15    9   10 1
    16   10   11 2
    17   10   12 1
    18   12   13 1
    19   12   30 1
    20   13   14 1
    21   13   31 1
    22   13   32 1
    23   14   15 1
    24   14   16 1
    25   14   19 1
    26   16   17 1
    27   16   18 1
    28   16   33 1
    29   17   34 1
    30   17   35 1
    31   17   36 1
    32   18   37 1
    33   18   38 1
    34   18   39 1
    35   19   24 1
    36   19   20 1
    37   19   52 1
    38   20   21 1
    39   20   40 1
    40   20   41 1
    41   21   22 1
    42   21   42 1
    43   21   43 1
    44   22   23 1
    45   22   25 1
    46   22   44 1
    47   23   24 1
    48   23   45 1
    49   23   46 1
    50   24   47 1
    51   24   48 1
    52   25   49 1
    53   25   50 1
    54   25   51 1
@<TRIPOS>MOLECULE
ZINC30142422
   48    50     0     0     0
SMALL
USER_CHARGES

@<TRIPOS>ATOM
      1 C1         -0.0187    1.5258    0.0104 C.3       1 <0>        -0.1598
      2 C2          0.0021   -0.0041    0.0020 C.3       1 <0>        -0.1166
      3 C3         -1.4333   -0.5336    0.0129 C.3       1 <0>        -0.1078
      4 H1         -1.9868   -0.1022   -0.8212 H         1 <0>         0.0964
      5 C4         -2.1110   -0.1472    1.3307 C.3       1 <0>        -0.1367
      6 C5         -3.5191   -0.7482    1.3646 C.3       1 <0>        -0.1404
      7 C6         -3.4250   -2.2648    1.1838 C.3       1 <0>        -0.0185
      8 N1         -2.7924   -2.5691   -0.1053 N.4       1 <0>        -0.3704
      9 C7         -1.4165   -2.0581   -0.1190 C.3       1 <0>        -0.0077
     10 C8         -2.7749   -4.0238   -0.3091 C.3       1 <0>         0.0516
     11 C9         -4.1888   -4.5315   -0.4283 C.2       1 <0>         0.3782
     12 N2         -4.3982   -5.8577   -0.6160 N.am      1 <0>        -0.6235
     13 H2         -3.6364   -6.4557   -0.6707 H         1 <0>         0.4306
     14 C10        -5.6424   -6.3623   -0.7279 C.2       1 <0>         0.5638
     15 O1         -5.8200   -7.5557   -0.8957 O.2       1 <0>        -0.4706
     16 C11        -6.7885   -5.4286   -0.6411 C.2       1 <0>        -0.2249
     17 C12        -8.1556   -5.6995   -0.7251 C.2       1 <0>         0.0301
     18 C13        -9.0577   -4.6806   -0.6179 C.2       1 <0>        -0.2188
     19 S1         -8.0132   -3.2517   -0.3878 S.3       1 <0>         0.2783
     20 C14        -6.4403   -4.0724   -0.4449 C.2       1 <0>         0.0768
     21 N3         -5.1763   -3.6822   -0.3424 N.2       1 <0>        -0.4959
     22 C15       -10.5196   -4.7442   -0.6770 C.2       1 <0>         0.5495
     23 O2        -11.0756   -5.8133   -0.8414 O.2       1 <0>        -0.4709
     24 O3        -11.2494   -3.6169   -0.5491 O.3       1 <0>        -0.3475
     25 C16       -12.6703   -3.7528   -0.6166 C.3       1 <0>         0.0340
     26 C17        -8.6341   -7.1131   -0.9341 C.3       1 <0>        -0.1308
     27 H3          1.0039    1.9031    0.0027 H         1 <0>         0.0664
     28 H4         -0.5459    1.8868   -0.8726 H         1 <0>         0.0595
     29 H5         -0.5289    1.8773    0.9072 H         1 <0>         0.0614
     30 H6          0.5123   -0.3556   -0.8948 H         1 <0>         0.0743
     31 H7          0.5293   -0.3651    0.8851 H         1 <0>         0.0744
     32 H8         -1.5291   -0.5346    2.1671 H         1 <0>         0.0824
     33 H9         -2.1762    0.9384    1.4024 H         1 <0>         0.0970
     34 H10        -3.9875   -0.5243    2.3231 H         1 <0>         0.1124
     35 H11        -4.1163   -0.3219    0.5585 H         1 <0>         0.0899
     36 H12        -2.8279   -2.6901    1.9904 H         1 <0>         0.1256
     37 H13        -4.4259   -2.6959    1.2076 H         1 <0>         0.1466
     38 H14        -0.9348   -2.3359   -1.0564 H         1 <0>         0.1341
     39 H15        -0.8620   -2.4883    0.7150 H         1 <0>         0.1335
     40 H16        -2.2272   -4.2562   -1.2224 H         1 <0>         0.1695
     41 H17        -2.2868   -4.5037    0.5393 H         1 <0>         0.1680
     42 H18       -13.1350   -2.7738   -0.4997 H         1 <0>         0.1117
     43 H19       -12.9495   -4.1745   -1.5822 H         1 <0>         0.0683
     44 H20       -13.0104   -4.4139    0.1806 H         1 <0>         0.0684
     45 H21        -8.7845   -7.5925    0.0332 H         1 <0>         0.0889
     46 H22        -9.5753   -7.1006   -1.4837 H         1 <0>         0.0977
     47 H23        -7.8885   -7.6687   -1.5029 H         1 <0>         0.0885
     48 H24        -3.3186   -2.1338   -0.8481 H         1 <0>         0.4332
@<TRIPOS>BOND
     1    1    2 1
     2    1   27 1
     3    1   28 1
     4    1   29 1
     5    2    3 1
     6    2   30 1
     7    2   31 1
     8    3    4 1
     9    3    9 1
    10    3    5 1
    11    5    6 1
    12    5   32 1
    13    5   33 1
    14    6    7 1
    15    6   34 1
    16    6   35 1
    17    7    8 1
    18    7   36 1
    19    7   37 1
    20    8    9 1
    21    8   10 1
    22    8   48 1
    23    9   38 1
    24    9   39 1
    25   10   11 1
    26   10   40 1
    27   10   41 1
    28   11   21 2
    29   11   12 1
    30   12   13 1
    31   12   14 am
    32   14   15 2
    33   14   16 1
    34   16   20 2
    35   16   17 1
    36   17   18 2
    37   17   26 1
    38   18   19 1
    39   18   22 1
    40   19   20 1
    41   20   21 1
    42   22   23 2
    43   22   24 1
    44   24   25 1
    45   25   42 1
    46   25   43 1
    47   25   44 1
    48   26   45 1
    49   26   46 1
    50   26   47 1
@<TRIPOS>MOLECULE
ZINC66514146
   47    49     0     0     0
SMALL
USER_CHARGES

@<TRIPOS>ATOM
      1 C1         -0.3241    1.5303   -0.0720 C.3       1 <0>        -0.1565
      2 C2         -0.2932    0.0006   -0.0752 C.3       1 <0>        -0.1499
      3 C3          0.4612   -0.4916   -1.3119 C.3       1 <0>        -0.0047
      4 N1          0.4908   -1.9603   -1.3150 N.4       1 <0>        -0.3878
      5 C4          1.3831   -2.4642   -0.2463 C.3       1 <0>         0.0464
      6 C5          2.0075   -3.7263   -0.7968 C.ar      1 <0>        -0.1071
      7 C6          2.6554   -4.7786   -0.1769 C.ar      1 <0>        -0.0910
      8 C7          3.1426   -5.8334   -0.9264 C.ar      1 <0>        -0.0666
      9 C8          2.9841   -5.8393   -2.2985 C.ar      1 <0>        -0.1116
     10 C9          2.3343   -4.7840   -2.9253 C.ar      1 <0>         0.2031
     11 C10         1.8456   -3.7263   -2.1704 C.ar      1 <0>        -0.1781
     12 C11         1.1104   -2.4648   -2.5616 C.3       1 <0>         0.0503
     13 N2          2.1726   -4.7867   -4.3144 N.am      1 <0>        -0.6715
     14 C12         2.1769   -5.9523   -4.9910 C.2       1 <0>         0.5657
     15 O1          2.2194   -7.0060   -4.3863 O.2       1 <0>        -0.4815
     16 C13         2.1299   -5.9495   -6.4684 C.ar      1 <0>        -0.1088
     17 C14         2.1750   -4.7427   -7.1690 C.ar      1 <0>        -0.0801
     18 C15         2.1307   -4.7471   -8.5476 C.ar      1 <0>        -0.0708
     19 C16         2.0414   -5.9440   -9.2362 C.ar      1 <0>        -0.0087
     20 C17         1.9959   -7.1433   -8.5482 C.ar      1 <0>        -0.0626
     21 C18         2.0461   -7.1535   -7.1694 C.ar      1 <0>        -0.0082
     22 C19         2.0033   -8.4612   -6.4217 C.3       1 <0>        -0.1354
     23 N3          1.9938   -5.9411  -10.7156 N.pl3     1 <0>         0.0223
     24 O2          2.0330   -4.8945  -11.3196 O.2       1 <0>        -0.1419
     25 O3          1.9158   -6.9853  -11.3200 O.3       1 <0>        -0.1387
     26 H1          0.6959    1.9142   -0.0521 H         1 <0>         0.0674
     27 H2         -0.8285    1.8854   -0.9706 H         1 <0>         0.0675
     28 H3         -0.8615    1.8810    0.8091 H         1 <0>         0.0786
     29 H4          0.2112   -0.3545    0.8234 H         1 <0>         0.0868
     30 H5         -1.3132   -0.3833   -0.0951 H         1 <0>         0.0870
     31 H6         -0.0432   -0.1365   -2.2105 H         1 <0>         0.1342
     32 H7          1.4812   -0.1077   -1.2920 H         1 <0>         0.1325
     33 H8          2.1556   -1.7284   -0.0228 H         1 <0>         0.1468
     34 H9          0.8062   -2.6897    0.6506 H         1 <0>         0.1430
     35 H10         2.7809   -4.7769    0.8958 H         1 <0>         0.1414
     36 H11         3.6481   -6.6536   -0.4383 H         1 <0>         0.1489
     37 H12         3.3646   -6.6638   -2.8832 H         1 <0>         0.1638
     38 H13         0.3409   -2.6909   -3.2997 H         1 <0>         0.1359
     39 H14         1.8097   -1.7291   -2.9589 H         1 <0>         0.1437
     40 H15         2.0573   -3.9498   -4.7909 H         1 <0>         0.4129
     41 H16         2.2440   -3.8078   -6.6326 H         1 <0>         0.1460
     42 H17         2.1655   -3.8142   -9.0907 H         1 <0>         0.1644
     43 H18         1.9255   -8.0740   -9.0916 H         1 <0>         0.1671
     44 H19         0.9828   -8.6589   -6.0936 H         1 <0>         0.0875
     45 H20         2.3364   -9.2657   -7.0774 H         1 <0>         0.0764
     46 H21         2.6596   -8.4049   -5.5533 H         1 <0>         0.1092
     47 H22        -0.4404   -2.3333   -1.2065 H         1 <0>         0.4329
@<TRIPOS>BOND
     1    1    2 1
     2    1   26 1
     3    1   27 1
     4    1   28 1
     5    2    3 1
     6    2   29 1
     7    2   30 1
     8    3    4 1
     9    3   31 1
    10    3   32 1
    11    4   12 1
    12    4    5 1
    13    4   47 1
    14    5    6 1
    15    5   33 1
    16    5   34 1
    17    6   11 ar
    18    6    7 ar
    19    7    8 ar
    20    7   35 1
    21    8    9 ar
    22    8   36 1
    23    9   10 ar
    24    9   37 1
    25   10   11 ar
    26   10   13 1
    27   11   12 1
    28   12   38 1
    29   12   39 1
    30   13   14 am
    31   13   40 1
    32   14   15 2
    33   14   16 1
    34   16   21 ar
    35   16   17 ar
    36   17   18 ar
    37   17   41 1
    38   18   19 ar
    39   18   42 1
    40   19   20 ar
    41   19   23 1
    42   20   21 ar
    43   20   43 1
    44   21   22 1
    45   22   44 1
    46   22   45 1
    47   22   46 1
    48   23   24 2
    49   23   25 1
@<TRIPOS>MOLECULE
ZINC35750173
   50    51     0     0     0
SMALL
USER_CHARGES

@<TRIPOS>ATOM
      1 C1         -0.4334    2.2777    1.0188 C.3       1 <0>        -0.1597
      2 C2         -0.3833    0.7572    0.8558 C.3       1 <0>        -0.1198
      3 C3          0.4390    0.1492    1.9938 C.3       1 <0>        -0.0260
      4 C4          1.8605    0.7135    1.9538 C.3       1 <0>        -0.1431
      5 C5         -0.2104    0.4973    3.3347 C.3       1 <0>        -0.1412
      6 C6          0.4883   -1.3484    1.8334 C.ar      1 <0>        -0.0807
      7 C7         -0.1017   -1.9460    0.7347 C.ar      1 <0>        -0.0569
      8 C8         -0.0577   -3.3174    0.5898 C.ar      1 <0>        -0.1339
      9 C9          0.5799   -4.1024    1.5456 C.ar      1 <0>         0.1649
     10 C10         1.1724   -3.5013    2.6421 C.ar      1 <0>        -0.2231
     11 C11         1.1276   -2.1239    2.7806 C.ar      1 <0>        -0.0884
     12 C12         1.8831   -4.3136    3.6947 C.3       1 <0>         0.0853
     13 H1          2.9601   -4.2395    3.5443 H         1 <0>         0.1485
     14 C13         1.4541   -5.7794    3.5919 C.3       1 <0>        -0.1783
     15 C14         1.5479   -6.2070    2.1216 C.3       1 <0>         0.0982
     16 H2          2.5523   -6.0119    1.7459 H         1 <0>         0.0865
     17 O1          0.5978   -5.4494    1.3709 O.3       1 <0>        -0.3020
     18 C15         1.2320   -7.6989    1.9977 C.3       1 <0>        -0.1532
     19 N1          1.5389   -3.7968    5.0260 N.4       1 <0>        -0.5039
     20 C16         2.3177   -4.5123    6.0455 C.3       1 <0>         0.0183
     21 C17         3.8033   -4.1906    5.8713 C.3       1 <0>        -0.1844
     22 C18         1.8606   -4.0730    7.4380 C.3       1 <0>        -0.1835
     23 H3          0.5794    2.6797    0.9903 H         1 <0>         0.0598
     24 H4         -1.0192    2.7109    0.2080 H         1 <0>         0.0594
     25 H5         -0.8960    2.5257    1.9741 H         1 <0>         0.0587
     26 H6         -1.3961    0.3552    0.8843 H         1 <0>         0.0679
     27 H7          0.0793    0.5092   -0.0994 H         1 <0>         0.0685
     28 H8          1.8249    1.7967    2.0699 H         1 <0>         0.0701
     29 H9          2.4463    0.2803    2.7646 H         1 <0>         0.0512
     30 H10         2.3232    0.4655    0.9986 H         1 <0>         0.0602
     31 H11        -1.2608    0.2070    3.3160 H         1 <0>         0.0605
     32 H12         0.3002   -0.0377    4.1355 H         1 <0>         0.0471
     33 H13        -0.1332    1.5707    3.5080 H         1 <0>         0.0697
     34 H14        -0.5969   -1.3397   -0.0093 H         1 <0>         0.1466
     35 H15        -0.5199   -3.7832   -0.2679 H         1 <0>         0.1450
     36 H16         1.5909   -1.6544    3.6358 H         1 <0>         0.1203
     37 H17         2.1153   -6.3990    4.1975 H         1 <0>         0.1114
     38 H18         0.4271   -5.8869    3.9409 H         1 <0>         0.1020
     39 H19         0.2237   -7.8886    2.3657 H         1 <0>         0.0734
     40 H20         1.2996   -7.9989    0.9520 H         1 <0>         0.0815
     41 H21         1.9478   -8.2720    2.5871 H         1 <0>         0.0867
     42 H22         1.7522   -2.8116    5.0699 H         1 <0>         0.4237
     43 H23         2.1629   -5.5855    5.9341 H         1 <0>         0.1407
     44 H24         3.9426   -3.1095    5.8651 H         1 <0>         0.0816
     45 H25         4.3683   -4.6250    6.6960 H         1 <0>         0.1087
     46 H26         4.1574   -4.6079    4.9287 H         1 <0>         0.0809
     47 H27         0.8022   -4.3022    7.5621 H         1 <0>         0.0823
     48 H28         2.4385   -4.6039    8.1944 H         1 <0>         0.1087
     49 H29         2.0154   -2.9998    7.5494 H         1 <0>         0.0819
     50 H30         0.5541   -3.9355    5.1964 H         1 <0>         0.4278
@<TRIPOS>BOND
     1    1    2 1
     2    1   23 1
     3    1   24 1
     4    1   25 1
     5    2    3 1
     6    2   26 1
     7    2   27 1
     8    3    4 1
     9    3    5 1
    10    3    6 1
    11    4   28 1
    12    4   29 1
    13    4   30 1
    14    5   31 1
    15    5   32 1
    16    5   33 1
    17    6   11 ar
    18    6    7 ar
    19    7    8 ar
    20    7   34 1
    21    8    9 ar
    22    8   35 1
    23    9   17 1
    24    9   10 ar
    25   10   11 ar
    26   10   12 1
    27   11   36 1
    28   12   13 1
    29   12   14 1
    30   12   19 1
    31   14   15 1
    32   14   37 1
    33   14   38 1
    34   15   16 1
    35   15   17 1
    36   15   18 1
    37   18   39 1
    38   18   40 1
    39   18   41 1
    40   19   20 1
    41   19   42 1
    42   19   50 1
    43   20   21 1
    44   20   22 1
    45   20   43 1
    46   21   44 1
    47   21   45 1
    48   21   46 1
    49   22   47 1
    50   22   48 1
    51   22   49 1
@<TRIPOS>MOLECULE
ZINC41204307
   41    42     0     0     0
SMALL
USER_CHARGES

@<TRIPOS>ATOM
      1 C1         -0.0187    1.5258    0.0104 C.3       1 <0>        -0.1495
      2 C2          0.0021   -0.0041    0.0020 C.3       1 <0>        -0.0523
      3 C3          0.7074   -0.4901   -1.2379 C.2       1 <0>        -0.1026
      4 C4          2.0229   -0.7610   -1.4208 C.2       1 <0>        -0.1800
      5 C5          2.4507   -1.2017   -2.6591 C.2       1 <0>        -0.0986
      6 C6          1.5420   -1.3499   -3.6540 C.2       1 <0>        -0.2116
      7 S1          0.0261   -0.8658   -2.8447 S.3       1 <0>         0.0930
      8 C7          1.7552   -1.8094   -5.0733 C.3       1 <0>         0.1741
      9 H1          2.6495   -2.4305   -5.1244 H         1 <0>         0.1044
     10 C8          1.9260   -0.5915   -5.9847 C.3       1 <0>        -0.0462
     11 N1          2.0755   -1.0407   -7.3757 N.4       1 <0>        -0.5039
     12 C9          0.8782   -1.7913   -7.7784 C.3       1 <0>        -0.0145
     13 H2          0.9882   -2.1251   -8.8101 H         1 <0>         0.1560
     14 C10         0.7094   -3.0069   -6.8636 C.3       1 <0>         0.0429
     15 O1          0.6219   -2.5675   -5.5052 O.3       1 <0>        -0.3450
     16 C11        -0.3525   -0.8897   -7.6620 C.3       1 <0>        -0.1410
     17 C12        -0.2392    0.2599   -8.6653 C.3       1 <0>        -0.1041
     18 C13        -0.2804   -0.2996  -10.0888 C.3       1 <0>        -0.1622
     19 C14        -1.4059    1.2291   -8.4643 C.3       1 <0>        -0.1542
     20 H3          1.0039    1.9031    0.0027 H         1 <0>         0.0606
     21 H4         -0.5459    1.8868   -0.8726 H         1 <0>         0.0576
     22 H5         -0.5289    1.8773    0.9072 H         1 <0>         0.0714
     23 H6          0.5293   -0.3651    0.8851 H         1 <0>         0.0947
     24 H7         -1.0205   -0.3814    0.0098 H         1 <0>         0.0855
     25 H8          2.7264   -0.6342   -0.6112 H         1 <0>         0.1422
     26 H9          3.4933   -1.4243   -2.8315 H         1 <0>         0.1367
     27 H10         1.0488    0.0503   -5.9022 H         1 <0>         0.1456
     28 H11         2.8138   -0.0347   -5.6850 H         1 <0>         0.1498
     29 H12         2.1884   -0.2390   -7.9779 H         1 <0>         0.4326
     30 H13        -0.2017   -3.5413   -7.1328 H         1 <0>         0.1451
     31 H14         1.5676   -3.6694   -6.9766 H         1 <0>         0.0856
     32 H15        -1.2499   -1.4706   -7.8748 H         1 <0>         0.1161
     33 H16        -0.4125   -0.4854   -6.6515 H         1 <0>         0.0944
     34 H17         0.7020    0.7869   -8.5092 H         1 <0>         0.0606
     35 H18        -0.1997    0.5193  -10.8035 H         1 <0>         0.0704
     36 H19         0.5507   -0.9901  -10.2320 H         1 <0>         0.0518
     37 H20        -1.2217   -0.8267  -10.2448 H         1 <0>         0.0702
     38 H21        -1.3765    1.6276   -7.4502 H         1 <0>         0.0606
     39 H22        -1.3252    2.0480   -9.1791 H         1 <0>         0.0677
     40 H23        -2.3471    0.7020   -8.6204 H         1 <0>         0.0666
     41 H24         2.8869   -1.6356   -7.4518 H         1 <0>         0.4296
@<TRIPOS>BOND
     1    1    2 1
     2    1   20 1
     3    1   21 1
     4    1   22 1
     5    2    3 1
     6    2   23 1
     7    2   24 1
     8    3    7 1
     9    3    4 2
    10    4    5 1
    11    4   25 1
    12    5    6 2
    13    5   26 1
    14    6    7 1
    15    6    8 1
    16    8    9 1
    17    8   15 1
    18    8   10 1
    19   10   11 1
    20   10   27 1
    21   10   28 1
    22   11   12 1
    23   11   29 1
    24   11   41 1
    25   12   13 1
    26   12   14 1
    27   12   16 1
    28   14   15 1
    29   14   30 1
    30   14   31 1
    31   16   17 1
    32   16   32 1
    33   16   33 1
    34   17   18 1
    35   17   19 1
    36   17   34 1
    37   18   35 1
    38   18   36 1
    39   18   37 1
    40   19   38 1
    41   19   39 1
    42   19   40 1
@<TRIPOS>MOLECULE
ZINC50962092
   47    48     0     0     0
SMALL
USER_CHARGES

@<TRIPOS>ATOM
      1 C1         -1.0065    1.0936   -0.3328 C.3       1 <0>        -0.1876
      2 C2         -0.6437   -0.3785   -0.1275 C.3       1 <0>        -0.0119
      3 N1          0.3522   -0.4922    0.9464 N.4       1 <0>        -0.5088
      4 C3          0.7005   -1.9056    1.1435 C.3       1 <0>         0.0766
      5 H1         -0.2092   -2.4858    1.2986 H         1 <0>         0.1556
      6 C4          1.4226   -2.4198   -0.0752 C.ar      1 <0>        -0.1463
      7 C5          2.6786   -1.9358   -0.3898 C.ar      1 <0>        -0.0619
      8 C6          3.3410   -2.4074   -1.5077 C.ar      1 <0>        -0.1200
      9 C7          2.7474   -3.3633   -2.3108 C.ar      1 <0>        -0.0386
     10 C8          1.4917   -3.8478   -1.9958 C.ar      1 <0>        -0.1213
     11 C9          0.8312   -3.3794   -0.8754 C.ar      1 <0>        -0.0362
     12 C10        -0.5355   -3.9114   -0.5290 C.3       1 <0>        -0.1333
     13 C11         3.4691   -3.8766   -3.5302 C.3       1 <0>        -0.1293
     14 C12         3.3257   -0.8938    0.4857 C.3       1 <0>        -0.1279
     15 C13         1.6070   -2.0414    2.3685 C.3       1 <0>         0.0579
     16 H2          2.5168   -1.4613    2.2136 H         1 <0>         0.0974
     17 C14         0.8735   -1.5197    3.6069 C.3       1 <0>        -0.1700
     18 C15         1.7639   -1.7144    4.8380 C.3       1 <0>        -0.1215
     19 C16         2.1299   -3.1968    4.9605 C.3       1 <0>        -0.1622
     20 C17         2.8149   -3.6537    3.6699 C.3       1 <0>         0.0613
     21 O1          1.9456   -3.4164    2.5608 O.3       1 <0>        -0.3546
     22 H3         -0.1121    1.6536   -0.6059 H         1 <0>         0.0802
     23 H4         -1.7455    1.1780   -1.1296 H         1 <0>         0.1095
     24 H5         -1.4204    1.4981    0.5909 H         1 <0>         0.0813
     25 H6         -1.5381   -0.9384    0.1457 H         1 <0>         0.1322
     26 H7         -0.2298   -0.7829   -1.0512 H         1 <0>         0.1330
     27 H8          1.1801    0.0261    0.6936 H         1 <0>         0.4219
     28 H9          4.3220   -2.0288   -1.7539 H         1 <0>         0.1339
     29 H10         1.0279   -4.5944   -2.6234 H         1 <0>         0.1349
     30 H11        -1.2969   -3.3000   -1.0134 H         1 <0>         0.0784
     31 H12        -0.6227   -4.9415   -0.8746 H         1 <0>         0.0845
     32 H13        -0.6755   -3.8775    0.5514 H         1 <0>         0.0714
     33 H14         4.0721   -4.7428   -3.2576 H         1 <0>         0.0827
     34 H15         2.7413   -4.1648   -4.2887 H         1 <0>         0.0755
     35 H16         4.1159   -3.0937   -3.9261 H         1 <0>         0.0748
     36 H17         4.0031   -1.3793    1.1883 H         1 <0>         0.0946
     37 H18         3.8860   -0.1947   -0.1351 H         1 <0>         0.0910
     38 H19         2.5561   -0.3538    1.0372 H         1 <0>         0.0415
     39 H20         0.6536   -0.4597    3.4803 H         1 <0>         0.0678
     40 H21        -0.0566   -2.0724    3.7390 H         1 <0>         0.0881
     41 H22         2.6726   -1.1224    4.7281 H         1 <0>         0.0704
     42 H23         1.2259   -1.3966    5.7311 H         1 <0>         0.0813
     43 H24         2.8084   -3.3361    5.8021 H         1 <0>         0.0858
     44 H25         1.2251   -3.7833    5.1200 H         1 <0>         0.0779
     45 H26         3.7405   -3.0948    3.5322 H         1 <0>         0.0576
     46 H27         3.0391   -4.7184    3.7347 H         1 <0>         0.1086
     47 H28        -0.0310   -0.1178    1.8015 H         1 <0>         0.4240
@<TRIPOS>BOND
     1    1    2 1
     2    1   22 1
     3    1   23 1
     4    1   24 1
     5    2    3 1
     6    2   25 1
     7    2   26 1
     8    3    4 1
     9    3   27 1
    10    3   47 1
    11    4    5 1
    12    4    6 1
    13    4   15 1
    14    6   11 ar
    15    6    7 ar
    16    7    8 ar
    17    7   14 1
    18    8    9 ar
    19    8   28 1
    20    9   10 ar
    21    9   13 1
    22   10   11 ar
    23   10   29 1
    24   11   12 1
    25   12   30 1
    26   12   31 1
    27   12   32 1
    28   13   33 1
    29   13   34 1
    30   13   35 1
    31   14   36 1
    32   14   37 1
    33   14   38 1
    34   15   16 1
    35   15   21 1
    36   15   17 1
    37   17   18 1
    38   17   39 1
    39   17   40 1
    40   18   19 1
    41   18   41 1
    42   18   42 1
    43   19   20 1
    44   19   43 1
    45   19   44 1
    46   20   21 1
    47   20   45 1
    48   20   46 1
@<TRIPOS>MOLECULE
ZINC37740013
   51    52     0     0     0
SMALL
USER_CHARGES

@<TRIPOS>ATOM
      1 C1         -0.0187    1.5258    0.0104 C.3       1 <0>        -0.1551
      2 C2          0.0021   -0.0041    0.0020 C.3       1 <0>         0.0855
      3 H1         -1.0206   -0.3812    0.0098 H         1 <0>         0.0521
      4 C3          0.7180   -0.4974   -1.2574 C.3       1 <0>        -0.1335
      5 C4          0.7540   -2.0281   -1.2516 C.3       1 <0>         0.0268
      6 H2         -0.2642   -2.4166   -1.2757 H         1 <0>         0.1362
      7 C5          1.4553   -2.5095    0.0215 C.3       1 <0>        -0.1048
      8 H3          2.4855   -2.1532    0.0265 H         1 <0>         0.1045
      9 C6          0.7181   -1.9579    1.2439 C.3       1 <0>         0.0594
     10 N1          0.7119   -0.4903    1.1920 N.3       1 <0>        -0.5409
     11 C7          0.1346    0.0772    2.4179 C.3       1 <0>         0.0174
     12 C8          1.4436   -4.0389    0.0641 C.3       1 <0>        -0.1696
     13 N2          1.4898   -2.5063   -2.4297 N.4       1 <0>        -0.5072
     14 C9          0.7551   -2.1401   -3.6479 C.3       1 <0>        -0.0165
     15 C10         1.5215   -2.6382   -4.8749 C.3       1 <0>        -0.1449
     16 C11         0.7562   -2.2567   -6.1436 C.3       1 <0>        -0.0824
     17 C12        -0.5821   -2.9976   -6.1741 C.3       1 <0>        -0.1203
     18 C13        -1.3473   -2.6161   -7.4429 C.3       1 <0>        -0.1226
     19 C14        -0.5222   -3.0029   -8.6719 C.3       1 <0>        -0.1246
     20 C15         0.8162   -2.2621   -8.6414 C.3       1 <0>        -0.1229
     21 C16         1.5814   -2.6435   -7.3726 C.3       1 <0>        -0.1150
     22 H4          1.0039    1.9031    0.0027 H         1 <0>         0.0706
     23 H5         -0.5459    1.8868   -0.8726 H         1 <0>         0.0667
     24 H6         -0.5289    1.8773    0.9072 H         1 <0>         0.0703
     25 H7          0.1821   -0.1493   -2.1405 H         1 <0>         0.0930
     26 H8          1.7365   -0.1095   -1.2726 H         1 <0>         0.0975
     27 H9         -0.3080   -2.3257    1.2457 H         1 <0>         0.0465
     28 H10         1.2233   -2.2870    2.1519 H         1 <0>         0.0979
     29 H11        -0.9135   -0.2121    2.4936 H         1 <0>         0.0333
     30 H12         0.6790   -0.2994    3.2839 H         1 <0>         0.0767
     31 H13         0.2102    1.1641    2.3857 H         1 <0>         0.0821
     32 H14         1.9662   -4.4307   -0.8085 H         1 <0>         0.0557
     33 H15         1.9429   -4.3810    0.9706 H         1 <0>         0.0876
     34 H16         0.4132   -4.3945    0.0606 H         1 <0>         0.0723
     35 H17         2.4055   -2.0829   -2.4490 H         1 <0>         0.4264
     36 H18        -0.2340   -2.5976   -3.6269 H         1 <0>         0.1322
     37 H19         0.6531   -1.0561   -3.6986 H         1 <0>         0.1332
     38 H20         2.5106   -2.1807   -4.8958 H         1 <0>         0.0887
     39 H21         1.6235   -3.7222   -4.8242 H         1 <0>         0.0874
     40 H22         0.5766   -1.1817   -6.1502 H         1 <0>         0.0815
     41 H23        -0.4025   -4.0727   -6.1675 H         1 <0>         0.0676
     42 H24        -1.1700   -2.7220   -5.2986 H         1 <0>         0.0586
     43 H25        -2.3008   -3.1439   -7.4647 H         1 <0>         0.0668
     44 H26        -1.5269   -1.5411   -7.4495 H         1 <0>         0.0643
     45 H27        -0.3426   -4.0780   -8.6653 H         1 <0>         0.0634
     46 H28        -1.0674   -2.7312   -9.5758 H         1 <0>         0.0671
     47 H29         1.4040   -2.5377   -9.5169 H         1 <0>         0.0684
     48 H30         0.6366   -1.1870   -8.6480 H         1 <0>         0.0643
     49 H31         2.5349   -2.1157   -7.3509 H         1 <0>         0.0662
     50 H32         1.7610   -3.7186   -7.3660 H         1 <0>         0.0664
     51 H33         1.5843   -3.5098   -2.3827 H         1 <0>         0.4256
@<TRIPOS>BOND
     1    1    2 1
     2    1   22 1
     3    1   23 1
     4    1   24 1
     5    2    3 1
     6    2   10 1
     7    2    4 1
     8    4    5 1
     9    4   25 1
    10    4   26 1
    11    5    6 1
    12    5    7 1
    13    5   13 1
    14    7    8 1
    15    7    9 1
    16    7   12 1
    17    9   10 1
    18    9   27 1
    19    9   28 1
    20   10   11 1
    21   11   29 1
    22   11   30 1
    23   11   31 1
    24   12   32 1
    25   12   33 1
    26   12   34 1
    27   13   14 1
    28   13   35 1
    29   13   51 1
    30   14   15 1
    31   14   36 1
    32   14   37 1
    33   15   16 1
    34   15   38 1
    35   15   39 1
    36   16   21 1
    37   16   17 1
    38   16   40 1
    39   17   18 1
    40   17   41 1
    41   17   42 1
    42   18   19 1
    43   18   43 1
    44   18   44 1
    45   19   20 1
    46   19   45 1
    47   19   46 1
    48   20   21 1
    49   20   47 1
    50   20   48 1
    51   21   49 1
    52   21   50 1
@<TRIPOS>MOLECULE
ZINC62624643
   51    52     0     0     0
SMALL
USER_CHARGES

@<TRIPOS>ATOM
      1 C1         -1.6783    0.9326   -1.8679 C.3       1 <0>        -0.1549
      2 C2         -1.4952   -0.5708   -1.6506 C.3       1 <0>        -0.0950
      3 C3         -0.2892   -1.0592   -2.4555 C.3       1 <0>        -0.1572
      4 C4         -1.2616   -0.8464   -0.1639 C.3       1 <0>        -0.1653
      5 C5         -1.1906   -2.3568    0.0698 C.3       1 <0>         0.0516
      6 H1         -0.4197   -2.7878   -0.5690 H         1 <0>         0.1362
      7 C6         -2.5433   -2.9893   -0.2648 C.3       1 <0>        -0.0017
      8 N1         -3.5786   -2.4225    0.6094 N.4       1 <0>        -0.5085
      9 C7         -3.2522   -2.7150    2.0113 C.3       1 <0>         0.0354
     10 H2         -3.1936   -3.7941    2.1532 H         1 <0>         0.1481
     11 C8         -1.9054   -2.0802    2.3648 C.3       1 <0>         0.0220
     12 N2         -0.8642   -2.6203    1.4784 N.3       1 <0>        -0.5225
     13 C9          0.4561   -2.0767    1.8234 C.3       1 <0>         0.0801
     14 C10         1.5272   -2.6444    0.8694 C.3       1 <0>        -0.1208
     15 C11         2.7708   -2.8450    1.7706 C.3       1 <0>        -0.1262
     16 C12         2.1520   -3.3389    3.1019 C.3       1 <0>        -0.1229
     17 C13         0.8534   -2.5183    3.2429 C.3       1 <0>        -0.1212
     18 C14        -4.3411   -2.1397    2.9192 C.3       1 <0>        -0.1120
     19 C15        -5.6876   -2.7744    2.5660 C.3       1 <0>        -0.1700
     20 C16        -4.0010   -2.4443    4.3795 C.3       1 <0>        -0.1531
     21 H3         -1.8448    1.1290   -2.9271 H         1 <0>         0.0653
     22 H4         -2.5375    1.2806   -1.2945 H         1 <0>         0.0537
     23 H5         -0.7832    1.4592   -1.5370 H         1 <0>         0.0614
     24 H6         -2.3903   -1.0974   -1.9815 H         1 <0>         0.0668
     25 H7          0.5966   -0.4970   -2.1602 H         1 <0>         0.0624
     26 H8         -0.1281   -2.1196   -2.2612 H         1 <0>         0.0575
     27 H9         -0.4771   -0.9091   -3.5187 H         1 <0>         0.0651
     28 H10        -0.3241   -0.3861    0.1480 H         1 <0>         0.0938
     29 H11        -2.0831   -0.4271    0.4169 H         1 <0>         0.0575
     30 H12        -2.7935   -2.7829   -1.3054 H         1 <0>         0.1392
     31 H13        -2.4883   -4.0671   -0.1113 H         1 <0>         0.1411
     32 H14        -3.6214   -1.4233    0.4756 H         1 <0>         0.4212
     33 H15        -1.9677   -0.9996    2.2361 H         1 <0>         0.0631
     34 H16        -1.6559   -2.3097    3.4007 H         1 <0>         0.1267
     35 H17         0.4393   -0.9886    1.7619 H         1 <0>         0.0574
     36 H18         1.2004   -3.5971    0.4526 H         1 <0>         0.0791
     37 H19         1.7442   -1.9328    0.0727 H         1 <0>         0.0677
     38 H20         3.4350   -3.5999    1.3499 H         1 <0>         0.0740
     39 H21         3.2985   -1.9025    1.9162 H         1 <0>         0.0701
     40 H22         1.9261   -4.4038    3.0457 H         1 <0>         0.0701
     41 H23         2.8250   -3.1342    3.9345 H         1 <0>         0.0703
     42 H24         1.0302   -1.6444    3.8700 H         1 <0>         0.0690
     43 H25         0.0665   -3.1359    3.6758 H         1 <0>         0.0745
     44 H26        -4.3997   -1.0605    2.7774 H         1 <0>         0.0928
     45 H27        -5.6290   -3.8536    2.7078 H         1 <0>         0.0748
     46 H28        -6.4633   -2.3646    3.2128 H         1 <0>         0.0865
     47 H29        -5.9298   -2.5574    1.5256 H         1 <0>         0.0509
     48 H30        -3.9424   -3.5235    4.5214 H         1 <0>         0.0702
     49 H31        -3.0417   -1.9921    4.6312 H         1 <0>         0.0684
     50 H32        -4.7768   -2.0345    5.0263 H         1 <0>         0.0787
     51 H33        -4.4725   -2.8306    0.3802 H         1 <0>         0.4286
@<TRIPOS>BOND
     1    1    2 1
     2    1   21 1
     3    1   22 1
     4    1   23 1
     5    2    3 1
     6    2    4 1
     7    2   24 1
     8    3   25 1
     9    3   26 1
    10    3   27 1
    11    4    5 1
    12    4   28 1
    13    4   29 1
    14    5    6 1
    15    5   12 1
    16    5    7 1
    17    7    8 1
    18    7   30 1
    19    7   31 1
    20    8    9 1
    21    8   32 1
    22    8   51 1
    23    9   10 1
    24    9   11 1
    25    9   18 1
    26   11   12 1
    27   11   33 1
    28   11   34 1
    29   12   13 1
    30   13   17 1
    31   13   14 1
    32   13   35 1
    33   14   15 1
    34   14   36 1
    35   14   37 1
    36   15   16 1
    37   15   38 1
    38   15   39 1
    39   16   17 1
    40   16   40 1
    41   16   41 1
    42   17   42 1
    43   17   43 1
    44   18   19 1
    45   18   20 1
    46   18   44 1
    47   19   45 1
    48   19   46 1
    49   19   47 1
    50   20   48 1
    51   20   49 1
    52   20   50 1
@<TRIPOS>MOLECULE
ZINC36902164
   25    26     0     0     0
SMALL
USER_CHARGES

@<TRIPOS>ATOM
      1 C1         -0.0184    1.5028    0.0103 C.3       1 <0>        -0.1169
      2 C2          0.0021   -0.0041    0.0020 C.ar      1 <0>        -0.0451
      3 C3          0.0057   -0.6877   -1.1999 C.ar      1 <0>        -0.1502
      4 C4          0.0244   -2.0704   -1.2128 C.ar      1 <0>        -0.1002
      5 C5          0.0396   -2.7737   -0.0223 C.ar      1 <0>         0.0143
      6 C6          0.0360   -2.0882    1.1878 C.ar      1 <0>         0.1942
      7 C7          0.0229   -0.7000    1.1953 C.ar      1 <0>        -0.1757
      8 N1          0.0513   -2.7955    2.3941 N.pl3     1 <0>        -0.7414
      9 C8          0.0475   -2.0717    3.6677 C.3       1 <0>         0.2121
     10 C9          0.0664   -3.0586    4.8065 C.2       1 <0>        -0.0138
     11 C10         1.2153   -3.4412    5.4209 C.2       1 <0>        -0.2596
     12 S1          0.6499   -4.5203    6.5771 S.3       1 <0>         0.4108
     13 N2         -0.9340   -4.4486    6.2546 N.2       1 <0>        -0.2431
     14 N3         -1.0303   -3.6094    5.2828 N.2       1 <0>        -0.2347
     15 F1          0.0574   -4.1246   -0.0347 F         1 <0>        -0.1448
     16 H1          1.0042    1.8801    0.0026 H         1 <0>         0.0741
     17 H2         -0.5455    1.8639   -0.8728 H         1 <0>         0.0701
     18 H3         -0.5286    1.8543    0.9071 H         1 <0>         0.0680
     19 H4         -0.0065   -0.1404   -2.1309 H         1 <0>         0.1295
     20 H5          0.0268   -2.6013   -2.1533 H         1 <0>         0.1351
     21 H6          0.0245   -0.1646    2.1332 H         1 <0>         0.1308
     22 H7          0.0645   -3.7654    2.3875 H         1 <0>         0.4047
     23 H8          0.9292   -1.4334    3.7255 H         1 <0>         0.0860
     24 H9         -0.8506   -1.4576    3.7340 H         1 <0>         0.0847
     25 H10         2.2301   -3.1320    5.2183 H         1 <0>         0.2113
@<TRIPOS>BOND
     1    1    2 1
     2    1   16 1
     3    1   17 1
     4    1   18 1
     5    2    7 ar
     6    2    3 ar
     7    3    4 ar
     8    3   19 1
     9    4    5 ar
    10    4   20 1
    11    5    6 ar
    12    5   15 1
    13    6    7 ar
    14    6    8 1
    15    7   21 1
    16    8    9 1
    17    8   22 1
    18    9   10 1
    19    9   23 1
    20    9   24 1
    21   10   14 1
    22   10   11 2
    23   11   12 1
    24   11   25 1
    25   12   13 1
    26   13   14 2
@<TRIPOS>MOLECULE
ZINC38579842
   25    26     0     0     0
SMALL
USER_CHARGES

@<TRIPOS>ATOM
      1 C1         -0.0167    1.3780    0.0096 C.ar      1 <0>        -0.1312
      2 C2          1.1706    2.0866    0.0021 C.ar      1 <0>        -0.0768
      3 C3          2.3773    1.4137   -0.0131 C.ar      1 <0>        -0.1560
      4 C4          2.3974    0.0291   -0.0207 C.ar      1 <0>         0.1192
      5 C5          1.2080   -0.6793   -0.0132 C.ar      1 <0>        -0.1509
      6 C6          0.0021   -0.0041    0.0020 C.ar      1 <0>        -0.0680
      7 C7          1.2281   -2.1862   -0.0220 C.3       1 <0>         0.1662
      8 N1          1.4877   -2.6790    1.3330 N.pl3     1 <0>        -0.7009
      9 C8          1.5522   -4.0419    1.5739 C.ar      1 <0>         0.4531
     10 C9          1.3773   -4.9549    0.5329 C.ar      1 <0>        -0.2793
     11 C10         1.4508   -6.3045    0.8246 C.ar      1 <0>         0.2533
     12 N2          1.6834   -6.6842    2.0745 N.ar      1 <0>        -0.5578
     13 C11         1.8440   -5.7962    3.0345 C.ar      1 <0>         0.3631
     14 N3          1.7873   -4.5008    2.8000 N.ar      1 <0>        -0.5755
     15 Cl1         1.2409   -7.4873   -0.4287 Cl        1 <0>        -0.0138
     16 F1          3.5766   -0.6299   -0.0360 F         1 <0>        -0.1322
     17 H1         -0.9594    1.9048    0.0260 H         1 <0>         0.1348
     18 H2          1.1547    3.1665    0.0077 H         1 <0>         0.1371
     19 H3          3.3046    1.9675   -0.0193 H         1 <0>         0.1397
     20 H4         -0.9259   -0.5565    0.0083 H         1 <0>         0.1366
     21 H5          0.2640   -2.5604   -0.3662 H         1 <0>         0.0854
     22 H6          2.0136   -2.5351   -0.6922 H         1 <0>         0.0821
     23 H7          1.6144   -2.0512    2.0615 H         1 <0>         0.4130
     24 H8          1.1889   -4.6157   -0.4751 H         1 <0>         0.1516
     25 H9          2.0318   -6.1397    4.0411 H         1 <0>         0.2073
@<TRIPOS>BOND
     1    1    6 ar
     2    1    2 ar
     3    1   17 1
     4    2    3 ar
     5    2   18 1
     6    3    4 ar
     7    3   19 1
     8    4    5 ar
     9    4   16 1
    10    5    6 ar
    11    5    7 1
    12    6   20 1
    13    7    8 1
    14    7   21 1
    15    7   22 1
    16    8    9 1
    17    8   23 1
    18    9   14 ar
    19    9   10 ar
    20   10   11 ar
    21   10   24 1
    22   11   12 ar
    23   11   15 1
    24   12   13 ar
    25   13   14 ar
    26   13   25 1
@<TRIPOS>MOLECULE
ZINC44181706
   34    35     0     0     0
SMALL
USER_CHARGES

@<TRIPOS>ATOM
      1 C1         -0.0187    1.5258    0.0104 C.3       1 <0>        -0.1541
      2 C2          0.0021   -0.0041    0.0020 C.3       1 <0>        -0.0975
      3 C3          0.7421   -0.5109    1.2415 C.3       1 <0>        -0.1488
      4 C4         -1.4333   -0.5336    0.0129 C.3       1 <0>        -0.1379
      5 C5          0.7182   -0.4975   -1.2568 C.3       1 <0>         0.1020
      6 H1          0.7330   -1.5874   -1.2628 H         1 <0>         0.1051
      7 C6          2.1536    0.0321   -1.2676 C.3       1 <0>         0.0734
      8 N1          2.8751   -0.5361   -2.4091 N.pl3     1 <0>        -0.4872
      9 C7          3.6613   -1.6462   -2.3944 C.2       1 <0>         0.2556
     10 N2          4.1466   -1.8662   -3.5814 N.2       1 <0>        -0.4945
     11 C8          3.7046   -0.9113   -4.4396 C.ar      1 <0>         0.0403
     12 C9          2.8784   -0.0475   -3.7003 C.ar      1 <0>         0.0597
     13 C10         2.2746    1.0341   -4.3262 C.ar      1 <0>        -0.1032
     14 C11         2.4881    1.2515   -5.6711 C.ar      1 <0>        -0.1023
     15 C12         3.3011    0.3966   -6.4011 C.ar      1 <0>        -0.1296
     16 C13         3.9092   -0.6694   -5.8002 C.ar      1 <0>        -0.0641
     17 O1          0.0271   -0.0241   -2.4145 O.3       1 <0>        -0.5446
     18 H2          1.0039    1.9031    0.0027 H         1 <0>         0.0577
     19 H3         -0.5459    1.8868   -0.8726 H         1 <0>         0.0588
     20 H4         -0.5289    1.8773    0.9072 H         1 <0>         0.0664
     21 H5          0.2319   -0.1594    2.1383 H         1 <0>         0.0643
     22 H6          0.7568   -1.6008    1.2356 H         1 <0>         0.0607
     23 H7          1.7647   -0.1336    1.2338 H         1 <0>         0.0581
     24 H8         -1.9605   -0.1726   -0.8702 H         1 <0>         0.0633
     25 H9         -1.4185   -1.6235    0.0069 H         1 <0>         0.0561
     26 H10        -1.9435   -0.1821    0.9097 H         1 <0>         0.0580
     27 H11         2.1393    1.1188   -1.3512 H         1 <0>         0.0937
     28 H12         2.6537   -0.2546   -0.3425 H         1 <0>         0.1077
     29 H13         3.8546   -2.2559   -1.5242 H         1 <0>         0.2112
     30 H14         1.6403    1.7022   -3.7626 H         1 <0>         0.1159
     31 H15         2.0190    2.0927   -6.1595 H         1 <0>         0.1289
     32 H16         3.4593    0.5786   -7.4538 H         1 <0>         0.1287
     33 H17         4.5391   -1.3293   -6.3783 H         1 <0>         0.1279
     34 H18        -0.0248    0.9396   -2.4749 H         1 <0>         0.3702
@<TRIPOS>BOND
     1    1    2 1
     2    1   18 1
     3    1   19 1
     4    1   20 1
     5    2    3 1
     6    2    4 1
     7    2    5 1
     8    3   21 1
     9    3   22 1
    10    3   23 1
    11    4   24 1
    12    4   25 1
    13    4   26 1
    14    5    6 1
    15    5    7 1
    16    5   17 1
    17    7    8 1
    18    7   27 1
    19    7   28 1
    20    8   12 1
    21    8    9 1
    22    9   10 2
    23    9   29 1
    24   10   11 1
    25   11   16 ar
    26   11   12 ar
    27   12   13 ar
    28   13   14 ar
    29   13   30 1
    30   14   15 ar
    31   14   31 1
    32   15   16 ar
    33   15   32 1
    34   16   33 1
    35   17   34 1
@<TRIPOS>MOLECULE
ZINC50863850
   37    38     0     0     0
SMALL
USER_CHARGES

@<TRIPOS>ATOM
      1 C1         -0.0187    1.5258    0.0104 C.3       1 <0>        -0.1662
      2 C2          0.0021   -0.0041    0.0020 C.3       1 <0>         0.1197
      3 N1          0.7106   -0.4894    1.1889 N.pl3     1 <0>        -0.7140
      4 C3          0.8578   -1.8507    1.3994 C.ar      1 <0>         0.4373
      5 C4          0.3400   -2.7702    0.4845 C.ar      1 <0>        -0.3007
      6 C5          0.5126   -4.1162    0.7392 C.ar      1 <0>         0.1780
      7 N2          1.1589   -4.4895    1.8350 N.ar      1 <0>        -0.5539
      8 C6          1.6357   -3.5972    2.6790 C.ar      1 <0>         0.3695
      9 N3          1.4989   -2.3028    2.4730 N.ar      1 <0>        -0.5784
     10 C7          2.3629   -4.0699    3.9114 C.3       1 <0>        -0.0170
     11 H1          2.6880   -3.2082    4.4944 H         1 <0>         0.0925
     12 C8          1.4249   -4.9335    4.7573 C.3       1 <0>        -0.1058
     13 C9          2.1632   -5.4134    6.0085 C.3       1 <0>        -0.1182
     14 C10         3.3831   -6.2393    5.5955 C.3       1 <0>        -0.1156
     15 C11         4.3211   -5.3758    4.7496 C.3       1 <0>        -0.0906
     16 H2          4.6462   -4.5141    5.3326 H         1 <0>         0.0701
     17 C12         3.5828   -4.8959    3.4984 C.3       1 <0>        -0.1000
     18 C13         5.5410   -6.2017    4.3367 C.3       1 <0>        -0.1477
     19 H3          1.0039    1.9031    0.0027 H         1 <0>         0.0643
     20 H4         -0.5459    1.8868   -0.8726 H         1 <0>         0.0786
     21 H5         -0.5289    1.8773    0.9072 H         1 <0>         0.0644
     22 H6         -1.0205   -0.3814    0.0098 H         1 <0>         0.0667
     23 H7          0.5123   -0.3556   -0.8948 H         1 <0>         0.0667
     24 H8          1.0768    0.1425    1.8273 H         1 <0>         0.4077
     25 H9         -0.1826   -2.4368   -0.3999 H         1 <0>         0.1398
     26 H10         0.1255   -4.8561    0.0542 H         1 <0>         0.1652
     27 H11         0.5559   -4.3450    5.0515 H         1 <0>         0.0586
     28 H12         1.0998   -5.7952    4.1743 H         1 <0>         0.0755
     29 H13         2.4883   -4.5517    6.5915 H         1 <0>         0.0625
     30 H14         1.4950   -6.0286    6.6111 H         1 <0>         0.0653
     31 H15         3.9091   -6.5812    6.4869 H         1 <0>         0.0623
     32 H16         3.0580   -7.1010    5.0125 H         1 <0>         0.0645
     33 H17         3.2577   -5.7576    2.9154 H         1 <0>         0.0759
     34 H18         4.2510   -4.2806    2.8958 H         1 <0>         0.0587
     35 H19         5.2159   -7.0634    3.7537 H         1 <0>         0.0553
     36 H20         6.2092   -5.5865    3.7341 H         1 <0>         0.0534
     37 H21         6.0669   -6.5436    5.2280 H         1 <0>         0.0553
@<TRIPOS>BOND
     1    1    2 1
     2    1   19 1
     3    1   20 1
     4    1   21 1
     5    2    3 1
     6    2   22 1
     7    2   23 1
     8    3    4 1
     9    3   24 1
    10    4    9 ar
    11    4    5 ar
    12    5    6 ar
    13    5   25 1
    14    6    7 ar
    15    6   26 1
    16    7    8 ar
    17    8    9 ar
    18    8   10 1
    19   10   11 1
    20   10   17 1
    21   10   12 1
    22   12   13 1
    23   12   27 1
    24   12   28 1
    25   13   14 1
    26   13   29 1
    27   13   30 1
    28   14   15 1
    29   14   31 1
    30   14   32 1
    31   15   16 1
    32   15   17 1
    33   15   18 1
    34   17   33 1
    35   17   34 1
    36   18   35 1
    37   18   36 1
    38   18   37 1
@<TRIPOS>MOLECULE
ZINC47411551
   28    28     0     0     0
SMALL
USER_CHARGES

@<TRIPOS>ATOM
      1 C1         -0.6840   -3.8589   -1.6331 C.3       1 <0>        -0.1464
      2 C2          0.8071   -3.5590   -1.4665 C.3       1 <0>        -0.1107
      3 C3          1.0910   -2.1523   -1.9267 C.2       1 <0>        -0.0985
      4 C4          1.6565   -1.2817   -1.0947 C.2       1 <0>        -0.1706
      5 C5          1.8297    0.1559   -1.5121 C.3       1 <0>        -0.1042
      6 C6          2.1124   -1.7222    0.2320 C.2       1 <0>         0.5556
      7 O1          1.4415   -1.4796    1.2171 O.2       1 <0>        -0.4634
      8 N1          3.2737   -2.3948    0.3565 N.am      1 <0>        -0.6193
      9 C7          3.7043   -2.8108    1.6096 C.2       1 <0>         0.2654
     10 N2          3.1139   -2.6450    2.7736 N.2       1 <0>        -0.5179
     11 C8          3.6573   -3.1041    3.8857 C.2       1 <0>         0.0569
     12 C9          4.8440   -3.7497    3.7708 C.2       1 <0>        -0.2108
     13 S1          5.1045   -3.6558    2.0069 S.3       1 <0>         0.1062
     14 C10         5.7033   -4.3785    4.8372 C.3       1 <0>        -0.0602
     15 H1         -1.2648   -3.1567   -1.0350 H         1 <0>         0.0584
     16 H2         -0.9600   -3.7572   -2.6826 H         1 <0>         0.0602
     17 H3         -0.8893   -4.8763   -1.3003 H         1 <0>         0.0607
     18 H4          1.0832   -3.6606   -0.4170 H         1 <0>         0.0643
     19 H5          1.3879   -4.2611   -2.0647 H         1 <0>         0.0811
     20 H6          0.8355   -1.8510   -2.9318 H         1 <0>         0.1336
     21 H7          0.9485    0.7275   -1.2208 H         1 <0>         0.0784
     22 H8          2.7107    0.5724   -1.0237 H         1 <0>         0.0650
     23 H9          1.9552    0.2077   -2.5936 H         1 <0>         0.0770
     24 H10         3.8087   -2.5883   -0.4291 H         1 <0>         0.4264
     25 H11         3.1781   -2.9711    4.8443 H         1 <0>         0.1750
     26 H12         5.4137   -5.4210    4.9692 H         1 <0>         0.0786
     27 H13         6.7500   -4.3273    4.5374 H         1 <0>         0.0742
     28 H14         5.5677   -3.8420    5.7763 H         1 <0>         0.0852
@<TRIPOS>BOND
     1    1    2 1
     2    1   15 1
     3    1   16 1
     4    1   17 1
     5    2    3 1
     6    2   18 1
     7    2   19 1
     8    3    4 2
     9    3   20 1
    10    4    5 1
    11    4    6 1
    12    5   21 1
    13    5   22 1
    14    5   23 1
    15    6    7 2
    16    6    8 am
    17    8    9 1
    18    8   24 1
    19    9   13 1
    20    9   10 2
    21   10   11 1
    22   11   12 2
    23   11   25 1
    24   12   13 1
    25   12   14 1
    26   14   26 1
    27   14   27 1
    28   14   28 1
@<TRIPOS>MOLECULE
ZINC35573376
   44    46     0     0     0
SMALL
USER_CHARGES

@<TRIPOS>ATOM
      1 C1         -0.0187    1.5258    0.0104 C.3       1 <0>        -0.1559
      2 C2          0.0021   -0.0041    0.0020 C.3       1 <0>        -0.1499
      3 C3          0.7182   -0.4975   -1.2568 C.3       1 <0>        -0.0125
      4 N1          0.7381   -1.9663   -1.2649 N.4       1 <0>        -0.5075
      5 C4          1.4257   -2.4401   -2.4735 C.3       1 <0>         0.1694
      6 H1          0.9519   -2.0070   -3.3544 H         1 <0>         0.1512
      7 C5          1.3392   -3.9429   -2.5442 C.ar      1 <0>        -0.1423
      8 C6          1.4769   -4.7005   -1.3958 C.ar      1 <0>        -0.1253
      9 C7          1.3994   -6.0757   -1.4692 C.ar      1 <0>        -0.1039
     10 C8          1.1825   -6.7065   -2.6876 C.ar      1 <0>        -0.0442
     11 C9          1.0403   -5.9521   -3.8302 C.ar      1 <0>        -0.0591
     12 C10         1.1166   -4.5671   -3.7539 C.ar      1 <0>        -0.0828
     13 C11         0.7872   -6.5673   -5.1817 C.3       1 <0>        -0.0882
     14 C12         1.1498   -8.0509   -5.1731 C.3       1 <0>        -0.1244
     15 C13         0.4538   -8.7124   -3.9779 C.3       1 <0>        -0.1235
     16 C14         1.1168   -8.2114   -2.6964 C.3       1 <0>        -0.0925
     17 C15         2.8727   -2.0220   -2.4247 C.2       1 <0>        -0.2225
     18 C16         3.6481   -1.5425   -3.5053 C.2       1 <0>        -0.1948
     19 C17         4.8771   -1.2888   -3.0209 C.2       1 <0>        -0.0059
     20 O1          4.8871   -1.5876   -1.7115 O.3       1 <0>        -0.1549
     21 C18         3.6728   -2.0279   -1.3434 C.2       1 <0>        -0.0158
     22 H2          1.0039    1.9031    0.0027 H         1 <0>         0.0669
     23 H3         -0.5459    1.8868   -0.8726 H         1 <0>         0.0676
     24 H4         -0.5289    1.8773    0.9072 H         1 <0>         0.0781
     25 H5          0.5293   -0.3651    0.8851 H         1 <0>         0.0854
     26 H6         -1.0205   -0.3814    0.0098 H         1 <0>         0.0874
     27 H7          0.1910   -0.1364   -2.1398 H         1 <0>         0.1341
     28 H8          1.7408   -0.1202   -1.2645 H         1 <0>         0.1323
     29 H9          1.2261   -2.3006   -0.4474 H         1 <0>         0.4203
     30 H10         1.6449   -4.2172   -0.4447 H         1 <0>         0.1155
     31 H11         1.5087   -6.6668   -0.5720 H         1 <0>         0.1340
     32 H12         1.0055   -3.9745   -4.6499 H         1 <0>         0.1316
     33 H13        -0.2671   -6.4564   -5.4353 H         1 <0>         0.0841
     34 H14         1.3919   -6.0538   -5.9292 H         1 <0>         0.0807
     35 H15         0.8117   -8.5167   -6.0987 H         1 <0>         0.0761
     36 H16         2.2297   -8.1642   -5.0778 H         1 <0>         0.0684
     37 H17        -0.6027   -8.4440   -3.9737 H         1 <0>         0.0683
     38 H18         0.5577   -9.7953   -4.0458 H         1 <0>         0.0762
     39 H19         2.1271   -8.6157   -2.6327 H         1 <0>         0.0859
     40 H20         0.5395   -8.5510   -1.8365 H         1 <0>         0.0829
     41 H21         3.3173   -1.4065   -4.5244 H         1 <0>         0.1611
     42 H22         5.7139   -0.9096   -3.5886 H         1 <0>         0.2161
     43 H23         3.3879   -2.3367   -0.3485 H         1 <0>         0.1985
     44 H24        -0.2085   -2.3156   -1.2577 H         1 <0>         0.4337
@<TRIPOS>BOND
     1    1    2 1
     2    1   22 1
     3    1   23 1
     4    1   24 1
     5    2    3 1
     6    2   25 1
     7    2   26 1
     8    3    4 1
     9    3   27 1
    10    3   28 1
    11    4    5 1
    12    4   29 1
    13    4   44 1
    14    5    6 1
    15    5    7 1
    16    5   17 1
    17    7   12 ar
    18    7    8 ar
    19    8    9 ar
    20    8   30 1
    21    9   10 ar
    22    9   31 1
    23   10   16 1
    24   10   11 ar
    25   11   12 ar
    26   11   13 1
    27   12   32 1
    28   13   14 1
    29   13   33 1
    30   13   34 1
    31   14   15 1
    32   14   35 1
    33   14   36 1
    34   15   16 1
    35   15   37 1
    36   15   38 1
    37   16   39 1
    38   16   40 1
    39   17   21 2
    40   17   18 1
    41   18   19 2
    42   18   41 1
    43   19   20 1
    44   19   42 1
    45   20   21 1
    46   21   43 1
@<TRIPOS>MOLECULE
ZINC38043634
   47    48     0     0     0
SMALL
USER_CHARGES

@<TRIPOS>ATOM
      1 C1         -0.0187    1.5258    0.0104 C.3       1 <0>        -0.1794
      2 C2          0.0021   -0.0041    0.0020 C.3       1 <0>         0.0826
      3 H1          0.5123   -0.3556   -0.8948 H         1 <0>         0.1457
      4 C3         -1.4117   -0.5257    0.0127 C.ar      1 <0>        -0.1542
      5 C4         -2.1228   -0.5709    1.1973 C.ar      1 <0>        -0.1173
      6 C5         -3.4197   -1.0494    1.2071 C.ar      1 <0>        -0.1051
      7 C6         -4.0056   -1.4822    0.0323 C.ar      1 <0>        -0.0410
      8 C7         -3.2949   -1.4361   -1.1525 C.ar      1 <0>        -0.1032
      9 C8         -1.9995   -0.9536   -1.1630 C.ar      1 <0>        -0.0832
     10 C9         -5.4191   -2.0048    0.0432 C.3       1 <0>        -0.0671
     11 C10        -6.2882   -1.1437   -0.8756 C.3       1 <0>        -0.1485
     12 C11        -5.4315   -3.4522   -0.4524 C.3       1 <0>        -0.1479
     13 N1          0.7126   -0.4907    1.1921 N.4       1 <0>        -0.5100
     14 C12         2.1220   -0.0825    1.1220 C.3       1 <0>        -0.0072
     15 C13         2.8620   -0.5894    2.3615 C.3       1 <0>        -0.1529
     16 H2          2.7261   -1.6671    2.4516 H         1 <0>         0.1046
     17 C14         4.3547   -0.2707    2.2326 C.3       1 <0>        -0.1147
     18 C15         5.0722   -0.7123    3.5118 C.3       1 <0>        -0.1589
     19 C16         4.4309   -0.0145    4.7141 C.3       1 <0>         0.0530
     20 O1          3.0373   -0.3280    4.7576 O.3       1 <0>        -0.3676
     21 C17         2.3050    0.1025    3.6085 C.3       1 <0>         0.0522
     22 H3          1.0039    1.9031    0.0027 H         1 <0>         0.0841
     23 H4         -0.5459    1.8868   -0.8726 H         1 <0>         0.1082
     24 H5         -0.5289    1.8773    0.9072 H         1 <0>         0.0825
     25 H6         -1.6650   -0.2328    2.1152 H         1 <0>         0.1180
     26 H7         -3.9750   -1.0854    2.1327 H         1 <0>         0.1346
     27 H8         -3.7525   -1.7745   -2.0703 H         1 <0>         0.1359
     28 H9         -1.4455   -0.9141   -2.0892 H         1 <0>         0.1335
     29 H10        -5.8134   -1.9650    1.0586 H         1 <0>         0.0846
     30 H11        -5.8939   -1.1835   -1.8910 H         1 <0>         0.0589
     31 H12        -7.3106   -1.5216   -0.8677 H         1 <0>         0.0673
     32 H13        -6.2794   -0.1125   -0.5225 H         1 <0>         0.0579
     33 H14        -5.0372   -3.4920   -1.4678 H         1 <0>         0.0588
     34 H15        -4.8123   -4.0657    0.2021 H         1 <0>         0.0572
     35 H16        -6.4539   -3.8302   -0.4445 H         1 <0>         0.0673
     36 H17         0.2896   -0.0986    2.0201 H         1 <0>         0.4217
     37 H18         2.5788   -0.5061    0.2276 H         1 <0>         0.1385
     38 H19         2.1837    1.0050    1.0814 H         1 <0>         0.1367
     39 H20         4.7694   -0.8061    1.3785 H         1 <0>         0.0822
     40 H21         4.4877    0.8020    2.0917 H         1 <0>         0.0772
     41 H22         4.9810   -1.7924    3.6262 H         1 <0>         0.0786
     42 H23         6.1257   -0.4391    3.4514 H         1 <0>         0.0890
     43 H24         4.9095   -0.3576    5.6314 H         1 <0>         0.1068
     44 H25         4.5581    1.0639    4.6190 H         1 <0>         0.0592
     45 H26         2.4034    1.1825    3.4995 H         1 <0>         0.0657
     46 H27         1.2530   -0.1565    3.7285 H         1 <0>         0.0845
     47 H28         0.6554   -1.4974    1.2298 H         1 <0>         0.4311
@<TRIPOS>BOND
     1    1    2 1
     2    1   22 1
     3    1   23 1
     4    1   24 1
     5    2    3 1
     6    2    4 1
     7    2   13 1
     8    4    9 ar
     9    4    5 ar
    10    5    6 ar
    11    5   25 1
    12    6    7 ar
    13    6   26 1
    14    7    8 ar
    15    7   10 1
    16    8    9 ar
    17    8   27 1
    18    9   28 1
    19   10   11 1
    20   10   12 1
    21   10   29 1
    22   11   30 1
    23   11   31 1
    24   11   32 1
    25   12   33 1
    26   12   34 1
    27   12   35 1
    28   13   14 1
    29   13   36 1
    30   13   47 1
    31   14   15 1
    32   14   37 1
    33   14   38 1
    34   15   16 1
    35   15   21 1
    36   15   17 1
    37   17   18 1
    38   17   39 1
    39   17   40 1
    40   18   19 1
    41   18   41 1
    42   18   42 1
    43   19   20 1
    44   19   43 1
    45   19   44 1
    46   20   21 1
    47   21   45 1
    48   21   46 1
@<TRIPOS>MOLECULE
ZINC44053050
   41    42     0     0     0
SMALL
USER_CHARGES

@<TRIPOS>ATOM
      1 C1         -0.7617    1.2025   -0.7994 C.3       1 <0>        -0.1304
      2 C2         -0.5558   -0.2808   -0.6310 C.ar      1 <0>        -0.0488
      3 C3         -0.3848   -1.0854   -1.7420 C.ar      1 <0>        -0.1089
      4 C4         -0.1960   -2.4460   -1.5875 C.ar      1 <0>        -0.0661
      5 C5         -0.1777   -3.0020   -0.3220 C.ar      1 <0>        -0.1496
      6 C6         -0.3477   -2.1973    0.7890 C.ar      1 <0>        -0.1202
      7 C7         -0.5323   -0.8360    0.6347 C.ar      1 <0>        -0.1087
      8 C8          0.0272   -4.4855   -0.1537 C.3       1 <0>         0.0824
      9 H1         -0.2099   -4.9934   -1.0885 H         1 <0>         0.1573
     10 C9          1.4852   -4.7598    0.2202 C.3       1 <0>         0.0708
     11 H2          1.7223   -4.2519    1.1551 H         1 <0>         0.0963
     12 C10         1.6933   -6.2659    0.3911 C.3       1 <0>        -0.2060
     13 O1          2.3419   -4.2752   -0.8158 O.3       1 <0>        -0.2830
     14 C11         3.6157   -3.9554   -0.4642 C.ar      1 <0>         0.0857
     15 C12         4.0658   -4.2094    0.8225 C.ar      1 <0>        -0.1833
     16 C13         5.3608   -3.8835    1.1777 C.ar      1 <0>        -0.0877
     17 C14         6.2086   -3.3040    0.2521 C.ar      1 <0>        -0.1137
     18 C15         5.7639   -3.0485   -1.0318 C.ar      1 <0>        -0.1121
     19 C16         4.4705   -3.3787   -1.3950 C.ar      1 <0>         0.0808
     20 F1          4.0374   -3.1348   -2.6512 F         1 <0>        -0.1281
     21 N1         -0.8535   -4.9837    0.9113 N.4       1 <0>        -0.5033
     22 C17        -2.2552   -4.8292    0.4999 C.3       1 <0>        -0.0474
     23 H3          0.2049    1.7063   -0.7948 H         1 <0>         0.0827
     24 H4         -1.2667    1.3941   -1.7462 H         1 <0>         0.0766
     25 H5         -1.3721    1.5801    0.0209 H         1 <0>         0.0752
     26 H6         -0.3991   -0.6510   -2.7307 H         1 <0>         0.1371
     27 H7         -0.0631   -3.0748   -2.4555 H         1 <0>         0.1346
     28 H8         -0.3338   -2.6317    1.7777 H         1 <0>         0.1172
     29 H9         -0.6615   -0.2068    1.5029 H         1 <0>         0.1351
     30 H10         1.0398   -6.6356    1.1814 H         1 <0>         0.0715
     31 H11         1.4562   -6.7739   -0.5437 H         1 <0>         0.0897
     32 H12         2.7320   -6.4613    0.6575 H         1 <0>         0.0955
     33 H13         3.4043   -4.6614    1.5468 H         1 <0>         0.1352
     34 H14         5.7110   -4.0815    2.1800 H         1 <0>         0.1380
     35 H15         7.2202   -3.0500    0.5326 H         1 <0>         0.1422
     36 H16         6.4279   -2.5951   -1.7529 H         1 <0>         0.1495
     37 H17        -0.6581   -5.9591    1.0805 H         1 <0>         0.4309
     38 H18        -2.4308   -5.3986   -0.4128 H         1 <0>         0.1277
     39 H19        -2.9086   -5.1989    1.2901 H         1 <0>         0.1321
     40 H20        -2.4662   -3.7756    0.3171 H         1 <0>         0.1272
     41 H21        -0.6909   -4.4567    1.7562 H         1 <0>         0.4262
@<TRIPOS>BOND
     1    1    2 1
     2    1   23 1
     3    1   24 1
     4    1   25 1
     5    2    7 ar
     6    2    3 ar
     7    3    4 ar
     8    3   26 1
     9    4    5 ar
    10    4   27 1
    11    5    6 ar
    12    5    8 1
    13    6    7 ar
    14    6   28 1
    15    7   29 1
    16    8    9 1
    17    8   10 1
    18    8   21 1
    19   10   11 1
    20   10   12 1
    21   10   13 1
    22   12   30 1
    23   12   31 1
    24   12   32 1
    25   13   14 1
    26   14   19 ar
    27   14   15 ar
    28   15   16 ar
    29   15   33 1
    30   16   17 ar
    31   16   34 1
    32   17   18 ar
    33   17   35 1
    34   18   19 ar
    35   18   36 1
    36   19   20 1
    37   21   22 1
    38   21   37 1
    39   21   41 1
    40   22   38 1
    41   22   39 1
    42   22   40 1
@<TRIPOS>MOLECULE
ZINC51254066
   48    49     0     0     0
SMALL
USER_CHARGES

@<TRIPOS>ATOM
      1 C1          0.3500    1.5030    0.1269 C.3       1 <0>        -0.1249
      2 C2          0.2842   -0.0011    0.0609 C.ar      1 <0>        -0.0758
      3 C3          0.5408   -0.6512   -1.1326 C.ar      1 <0>        -0.1181
      4 C4          0.4814   -2.0293   -1.1966 C.ar      1 <0>        -0.1399
      5 C5          0.1634   -2.7628   -0.0603 C.ar      1 <0>         0.1386
      6 C6         -0.0936   -2.1067    1.1366 C.ar      1 <0>        -0.0975
      7 C7         -0.0269   -0.7283    1.1949 C.ar      1 <0>        -0.1101
      8 C8         -0.4394   -2.8982    2.3716 C.3       1 <0>        -0.1187
      9 N1          0.1020   -4.1568   -0.1216 N.pl3     1 <0>        -0.6700
     10 C9          1.3373   -4.9438   -0.1524 C.3       1 <0>         0.1064
     11 C10        -1.1977   -4.8320   -0.1550 C.3       1 <0>         0.1400
     12 C11        -1.7217   -4.8588   -1.5922 C.3       1 <0>        -0.1068
     13 C12        -2.9572   -5.7776   -1.6871 C.3       1 <0>        -0.1257
     14 C13        -2.8099   -6.4713   -3.0642 C.3       1 <0>        -0.1256
     15 C14        -1.2835   -6.7152   -3.1624 C.3       1 <0>        -0.1292
     16 C15        -0.6575   -5.4550   -2.5302 C.3       1 <0>        -0.1106
     17 C16        -2.0844   -3.4427   -2.0439 C.3       1 <0>        -0.0146
     18 N2         -3.0203   -2.8464   -1.0814 N.4       1 <0>        -0.5120
     19 C17        -3.4698   -1.5400   -1.5806 C.3       1 <0>        -0.0485
     20 H1          1.3638    1.8115    0.3819 H         1 <0>         0.0785
     21 H2          0.0756    1.9215   -0.8415 H         1 <0>         0.0704
     22 H3         -0.3419    1.8639    0.8879 H         1 <0>         0.0706
     23 H4          0.7875   -0.0804   -2.0156 H         1 <0>         0.1285
     24 H5          0.6815   -2.5363   -2.1289 H         1 <0>         0.1275
     25 H6         -0.2224   -0.2177    2.1263 H         1 <0>         0.1290
     26 H7          0.4741   -3.1436    2.9133 H         1 <0>         0.0776
     27 H8         -1.0933   -2.3058    3.0115 H         1 <0>         0.0674
     28 H9         -0.9489   -3.8175    2.0831 H         1 <0>         0.0672
     29 H10         1.6936   -5.1008    0.8657 H         1 <0>         0.0446
     30 H11         1.1422   -5.9080   -0.6219 H         1 <0>         0.0703
     31 H12         2.0952   -4.4081   -0.7241 H         1 <0>         0.0605
     32 H13        -1.0862   -5.8530    0.2102 H         1 <0>         0.0979
     33 H14        -1.9028   -4.2944    0.4789 H         1 <0>         0.0515
     34 H15        -2.9463   -6.5157   -0.8851 H         1 <0>         0.0896
     35 H16        -3.8739   -5.1890   -1.6526 H         1 <0>         0.0585
     36 H17        -3.3539   -7.4156   -3.0812 H         1 <0>         0.0783
     37 H18        -3.1485   -5.8147   -3.8656 H         1 <0>         0.0694
     38 H19        -1.0023   -7.6047   -2.5986 H         1 <0>         0.0731
     39 H20        -0.9787   -6.8108   -4.2046 H         1 <0>         0.0746
     40 H21        -0.4000   -4.7358   -3.3077 H         1 <0>         0.0696
     41 H22         0.2323   -5.7252   -1.9615 H         1 <0>         0.0906
     42 H23        -1.1808   -2.8354   -2.0960 H         1 <0>         0.1435
     43 H24        -2.5519   -3.4837   -3.0277 H         1 <0>         0.1312
     44 H25        -3.8170   -3.4547   -0.9660 H         1 <0>         0.4241
     45 H26        -4.1643   -1.0975   -0.8664 H         1 <0>         0.1268
     46 H27        -2.6091   -0.8829   -1.7053 H         1 <0>         0.1231
     47 H28        -3.9696   -1.6702   -2.5405 H         1 <0>         0.1256
     48 H29        -2.5577   -2.7259   -0.1928 H         1 <0>         0.4236
@<TRIPOS>BOND
     1    1    2 1
     2    1   20 1
     3    1   21 1
     4    1   22 1
     5    2    7 ar
     6    2    3 ar
     7    3    4 ar
     8    3   23 1
     9    4    5 ar
    10    4   24 1
    11    5    6 ar
    12    5    9 1
    13    6    7 ar
    14    6    8 1
    15    7   25 1
    16    8   26 1
    17    8   27 1
    18    8   28 1
    19    9   10 1
    20    9   11 1
    21   10   29 1
    22   10   30 1
    23   10   31 1
    24   11   12 1
    25   11   32 1
    26   11   33 1
    27   12   16 1
    28   12   13 1
    29   12   17 1
    30   13   14 1
    31   13   34 1
    32   13   35 1
    33   14   15 1
    34   14   36 1
    35   14   37 1
    36   15   16 1
    37   15   38 1
    38   15   39 1
    39   16   40 1
    40   16   41 1
    41   17   18 1
    42   17   42 1
    43   17   43 1
    44   18   19 1
    45   18   44 1
    46   18   48 1
    47   19   45 1
    48   19   46 1
    49   19   47 1
@<TRIPOS>MOLECULE
ZINC55330540
   48    49     0     0     0
SMALL
USER_CHARGES

@<TRIPOS>ATOM
      1 C1         -0.0187    1.5258    0.0104 C.3       1 <0>        -0.1580
      2 C2          0.0021   -0.0041    0.0020 C.3       1 <0>        -0.1162
      3 C3         -1.4333   -0.5336    0.0129 C.3       1 <0>        -0.0630
      4 H1         -1.9701   -0.1109    0.8621 H         1 <0>         0.0843
      5 C4         -2.1352   -0.1312   -1.2857 C.3       1 <0>        -0.1485
      6 C5         -1.4136   -2.0361    0.1285 C.ar      1 <0>        -0.0401
      7 C6         -0.7798   -2.7953   -0.8374 C.ar      1 <0>        -0.1012
      8 C7         -0.7617   -4.1735   -0.7313 C.ar      1 <0>        -0.0856
      9 C8         -1.3769   -4.7924    0.3407 C.ar      1 <0>        -0.1427
     10 C9         -2.0099   -4.0331    1.3070 C.ar      1 <0>        -0.1147
     11 C10        -2.0243   -2.6547    1.2033 C.ar      1 <0>        -0.1032
     12 C11        -1.3580   -6.2949    0.4558 C.3       1 <0>         0.1410
     13 H2         -1.1502   -6.7315   -0.5211 H         1 <0>         0.1548
     14 C12        -0.2863   -6.7106    1.4302 C.ar      1 <0>        -0.2005
     15 C13        -0.6160   -7.0514    2.7333 C.ar      1 <0>        -0.0755
     16 C14         0.4028   -7.4276    3.5948 C.ar      1 <0>        -0.1633
     17 C15         1.7043   -7.4504    3.1296 C.ar      1 <0>         0.1681
     18 N1          1.9810   -7.1194    1.8837 N.ar      1 <0>        -0.4710
     19 C16         1.0368   -6.7625    1.0349 C.ar      1 <0>         0.1800
     20 C17         1.4058   -6.4007   -0.3808 C.3       1 <0>        -0.1230
     21 C18         2.8198   -7.8578    4.0573 C.3       1 <0>        -0.1189
     22 N2         -2.6645   -6.7658    0.9346 N.4       1 <0>        -0.5087
     23 C19        -3.6919   -6.4659   -0.0716 C.3       1 <0>        -0.0496
     24 H3          1.0039    1.9031    0.0027 H         1 <0>         0.0597
     25 H4         -0.5459    1.8868   -0.8726 H         1 <0>         0.0604
     26 H5         -0.5289    1.8773    0.9072 H         1 <0>         0.0564
     27 H6          0.5123   -0.3556   -0.8948 H         1 <0>         0.0657
     28 H7          0.5293   -0.3651    0.8851 H         1 <0>         0.0631
     29 H8         -3.1578   -0.5085   -1.2779 H         1 <0>         0.0565
     30 H9         -2.1495    0.9555   -1.3693 H         1 <0>         0.0696
     31 H10        -1.5984   -0.5539   -2.1349 H         1 <0>         0.0589
     32 H11        -0.2992   -2.3118   -1.6750 H         1 <0>         0.1368
     33 H12        -0.2672   -4.7667   -1.4863 H         1 <0>         0.1357
     34 H13        -2.4908   -4.5166    2.1444 H         1 <0>         0.1159
     35 H14        -2.5156   -2.0613    1.9601 H         1 <0>         0.1342
     36 H15        -1.6421   -7.0241    3.0691 H         1 <0>         0.1278
     37 H16         0.1826   -7.6992    4.6167 H         1 <0>         0.1493
     38 H17         1.6177   -5.3331   -0.4395 H         1 <0>         0.0930
     39 H18         2.2896   -6.9636   -0.6810 H         1 <0>         0.0929
     40 H19         0.5770   -6.6438   -1.0457 H         1 <0>         0.0748
     41 H20         2.9693   -8.9356    3.9946 H         1 <0>         0.0910
     42 H21         3.7379   -7.3462    3.7682 H         1 <0>         0.0871
     43 H22         2.5592   -7.5861    5.0803 H         1 <0>         0.0847
     44 H23        -2.6266   -7.7620    1.0901 H         1 <0>         0.4336
     45 H24        -3.7329   -5.3897   -0.2396 H         1 <0>         0.1267
     46 H25        -3.4439   -6.9703   -1.0056 H         1 <0>         0.1273
     47 H26        -4.6614   -6.8154    0.2837 H         1 <0>         0.1305
     48 H27        -2.8941   -6.2989    1.7991 H         1 <0>         0.4241
@<TRIPOS>BOND
     1    1    2 1
     2    1   24 1
     3    1   25 1
     4    1   26 1
     5    2    3 1
     6    2   27 1
     7    2   28 1
     8    3    4 1
     9    3    5 1
    10    3    6 1
    11    5   29 1
    12    5   30 1
    13    5   31 1
    14    6   11 ar
    15    6    7 ar
    16    7    8 ar
    17    7   32 1
    18    8    9 ar
    19    8   33 1
    20    9   10 ar
    21    9   12 1
    22   10   11 ar
    23   10   34 1
    24   11   35 1
    25   12   13 1
    26   12   14 1
    27   12   22 1
    28   14   19 ar
    29   14   15 ar
    30   15   16 ar
    31   15   36 1
    32   16   17 ar
    33   16   37 1
    34   17   18 ar
    35   17   21 1
    36   18   19 ar
    37   19   20 1
    38   20   38 1
    39   20   39 1
    40   20   40 1
    41   21   41 1
    42   21   42 1
    43   21   43 1
    44   22   23 1
    45   22   44 1
    46   22   48 1
    47   23   45 1
    48   23   46 1
    49   23   47 1
@<TRIPOS>MOLECULE
ZINC20351601
   27    28     0     0     0
SMALL
USER_CHARGES
1-methyl-N-[(3-methyl-2-thienyl)methyl]pyrazol-3-amine
@<TRIPOS>ATOM
      1 C1         -0.0184    1.5028    0.0103 C.3       1 <0>        -0.1037
      2 C2          0.0021   -0.0041    0.0020 C.2       1 <0>        -0.0961
      3 C3         -0.0055   -0.6991   -1.1928 C.2       1 <0>        -0.1598
      4 C4          0.0190   -2.0541   -1.1651 C.2       1 <0>        -0.1630
      5 S1          0.0401   -2.3873    0.5887 S.3       1 <0>         0.0481
      6 C5          0.0226   -0.6981    1.1661 C.2       1 <0>        -0.1743
      7 C6          0.0293   -0.1787    2.5808 C.3       1 <0>         0.2331
      8 N1         -1.3496   -0.0288    3.0525 N.pl3     1 <0>        -0.7289
      9 C7         -1.5992    0.4423    4.3469 C.2       1 <0>         0.3431
     10 C8         -0.6282    0.8010    5.2957 C.2       1 <0>        -0.3123
     11 C9         -1.2712    1.2071    6.4142 C.2       1 <0>         0.0788
     12 N2         -2.5979    1.1019    6.1902 N.pl3     1 <0>        -0.3790
     13 N3         -2.7815    0.6204    4.8877 N.2       1 <0>        -0.3562
     14 C10        -3.6604    1.4333    7.1429 C.3       1 <0>         0.1028
     15 H1         -0.0333    1.8750   -1.0247 H         1 <0>         0.0654
     16 H2          0.8796    1.8789    0.5223 H         1 <0>         0.0705
     17 H3         -0.9165    1.8544    0.5393 H         1 <0>         0.0717
     18 H4         -0.0265   -0.1704   -2.1343 H         1 <0>         0.1352
     19 H5          0.0212   -2.7513   -1.9899 H         1 <0>         0.1871
     20 H6          0.5636   -0.8885    3.2294 H         1 <0>         0.0707
     21 H7          0.5352    0.7976    2.6106 H         1 <0>         0.0793
     22 H8         -2.1887   -0.2864    2.3896 H         1 <0>         0.4247
     23 H9          0.4420    0.7619    5.1563 H         1 <0>         0.1429
     24 H10        -0.8056    1.5498    7.3264 H         1 <0>         0.1724
     25 H11        -4.6402    1.2461    6.6792 H         1 <0>         0.0931
     26 H12        -3.5840    2.4943    7.4229 H         1 <0>         0.0773
     27 H13        -3.5548    0.8083    8.0419 H         1 <0>         0.0773
@<TRIPOS>BOND
     1    1    2 1
     2    1   15 1
     3    1   16 1
     4    1   17 1
     5    2    6 2
     6    2    3 1
     7    3    4 2
     8    3   18 1
     9    4    5 1
    10    4   19 1
    11    5    6 1
    12    6    7 1
    13    7    8 1
    14    7   20 1
    15    7   21 1
    16    8    9 1
    17    8   22 1
    18    9   13 2
    19    9   10 1
    20   10   11 2
    21   10   23 1
    22   11   12 1
    23   11   24 1
    24   12   13 1
    25   12   14 1
    26   14   25 1
    27   14   26 1
    28   14   27 1
@<TRIPOS>MOLECULE
ZINC39506111
   32    33     0     0     0
SMALL
USER_CHARGES

@<TRIPOS>ATOM
      1 C1         -0.0187    1.5258    0.0104 C.3       1 <0>        -0.1525
      2 C2          0.0021   -0.0041    0.0020 C.3       1 <0>         0.0567
      3 O1          0.6709   -0.4649   -1.1737 O.3       1 <0>        -0.3775
      4 C3          0.7457   -1.8880   -1.2798 C.3       1 <0>         0.0913
      5 H1          0.7652   -2.3429   -0.2894 H         1 <0>         0.0660
      6 C4         -0.4475   -2.4338   -2.1037 C.3       1 <0>        -0.1441
      7 C5          0.0894   -3.7893   -2.6302 C.3       1 <0>        -0.0987
      8 C6          1.5683   -3.5091   -2.9432 C.3       1 <0>         0.0746
      9 C7          1.9921   -2.3047   -2.0905 C.3       1 <0>        -0.1663
     10 C8          2.4244   -4.7373   -2.5917 C.3       1 <0>        -0.1269
     11 C9          2.6135   -5.4318   -3.9674 C.3       1 <0>         0.0929
     12 H2          1.7536   -6.0559   -4.2109 H         1 <0>         0.0827
     13 C10         2.7051   -4.2160   -4.9237 C.3       1 <0>        -0.0172
     14 N1          1.7494   -3.2288   -4.3734 N.3       1 <0>        -0.3232
     15 Cl1         2.3087   -1.6316   -4.6188 Cl        1 <0>        -0.0608
     16 O2          3.8207   -6.1961   -3.9931 O.3       1 <0>        -0.5550
     17 H3          1.0039    1.9031    0.0027 H         1 <0>         0.0621
     18 H4         -0.5459    1.8868   -0.8726 H         1 <0>         0.0631
     19 H5         -0.5289    1.8773    0.9072 H         1 <0>         0.0707
     20 H6          0.5293   -0.3651    0.8851 H         1 <0>         0.0469
     21 H7         -1.0205   -0.3814    0.0098 H         1 <0>         0.0481
     22 H8         -1.3193   -2.5849   -1.4671 H         1 <0>         0.0698
     23 H9         -0.6836   -1.7645   -2.9310 H         1 <0>         0.0828
     24 H10         0.0005   -4.5590   -1.8636 H         1 <0>         0.0800
     25 H11        -0.4427   -4.0857   -3.5341 H         1 <0>         0.0863
     26 H12         2.3110   -1.4849   -2.7341 H         1 <0>         0.1208
     27 H13         2.8002   -2.5871   -1.4156 H         1 <0>         0.0764
     28 H14         3.3856   -4.4321   -2.1781 H         1 <0>         0.0862
     29 H15         1.8950   -5.3912   -1.8987 H         1 <0>         0.0930
     30 H16         3.7157   -3.8074   -4.9221 H         1 <0>         0.0815
     31 H17         2.4132   -4.5046   -5.9334 H         1 <0>         0.1053
     32 H18         3.9820   -6.6485   -4.8323 H         1 <0>         0.3848
@<TRIPOS>BOND
     1    1    2 1
     2    1   17 1
     3    1   18 1
     4    1   19 1
     5    2    3 1
     6    2   20 1
     7    2   21 1
     8    3    4 1
     9    4    5 1
    10    4    9 1
    11    4    6 1
    12    6    7 1
    13    6   22 1
    14    6   23 1
    15    7    8 1
    16    7   24 1
    17    7   25 1
    18    8   14 1
    19    8    9 1
    20    8   10 1
    21    9   26 1
    22    9   27 1
    23   10   11 1
    24   10   28 1
    25   10   29 1
    26   11   12 1
    27   11   13 1
    28   11   16 1
    29   13   14 1
    30   13   30 1
    31   13   31 1
    32   14   15 1
    33   16   32 1
@<TRIPOS>MOLECULE
ZINC48815541
   33    33     0     0     0
SMALL
USER_CHARGES

@<TRIPOS>ATOM
      1 C1         -0.0184    1.5028    0.0103 C.3       1 <0>        -0.0858
      2 C2          0.0021   -0.0041    0.0020 C.2       1 <0>         0.0852
      3 C3          0.0059   -0.7076   -1.1591 C.2       1 <0>        -0.2237
      4 S1          0.0324   -2.3789   -0.5312 S.3       1 <0>         0.1012
      5 C4          0.0357   -2.0088    1.1107 C.2       1 <0>         0.0644
      6 N1          0.0226   -0.6992    1.1217 N.2       1 <0>        -0.5151
      7 C5          0.0549   -2.9548    2.2837 C.3       1 <0>        -0.0682
      8 C6         -0.0083   -0.2146   -2.5831 C.3       1 <0>         0.2383
      9 H1          0.2429    0.8459   -2.6030 H         1 <0>         0.1117
     10 C7         -1.4020   -0.4199   -3.1801 C.3       1 <0>        -0.1605
     11 N2          0.9749   -0.9641   -3.3692 N.am      1 <0>        -0.7283
     12 C8          1.5104   -0.4160   -4.4780 C.2       1 <0>         0.5203
     13 O1          1.1783    0.6976   -4.8250 O.2       1 <0>        -0.5328
     14 C9          2.5217   -1.1870   -5.2865 C.3       1 <0>        -0.1152
     15 C10         1.8907   -2.4886   -5.7853 C.3       1 <0>        -0.1456
     16 C11         2.9668   -0.3445   -6.4836 C.3       1 <0>        -0.1341
     17 H2          1.0042    1.8801    0.0026 H         1 <0>         0.0776
     18 H3         -0.5455    1.8639   -0.8728 H         1 <0>         0.0767
     19 H4         -0.5286    1.8543    0.9071 H         1 <0>         0.0784
     20 H5          1.0871   -3.1685    2.5612 H         1 <0>         0.0916
     21 H6         -0.4610   -2.4973    3.1279 H         1 <0>         0.0943
     22 H7         -0.4475   -3.8827    2.0104 H         1 <0>         0.0873
     23 H8         -1.4122   -0.0634   -4.2100 H         1 <0>         0.0722
     24 H9         -1.6531   -1.4804   -3.1602 H         1 <0>         0.0605
     25 H10        -2.1335    0.1377   -2.5952 H         1 <0>         0.0712
     26 H11         1.2405   -1.8548   -3.0916 H         1 <0>         0.3997
     27 H12         3.3857   -1.4176   -4.6632 H         1 <0>         0.0981
     28 H13         1.5736   -3.0887   -4.9325 H         1 <0>         0.0584
     29 H14         1.0268   -2.2580   -6.4086 H         1 <0>         0.0626
     30 H15         2.6222   -3.0462   -6.3701 H         1 <0>         0.0708
     31 H16         3.4163    0.5827   -6.1283 H         1 <0>         0.0625
     32 H17         3.6983   -0.9022   -7.0685 H         1 <0>         0.0633
     33 H18         2.1029   -0.1140   -7.1070 H         1 <0>         0.0632
@<TRIPOS>BOND
     1    1    2 1
     2    1   17 1
     3    1   18 1
     4    1   19 1
     5    2    6 1
     6    2    3 2
     7    3    4 1
     8    3    8 1
     9    4    5 1
    10    5    6 2
    11    5    7 1
    12    7   20 1
    13    7   21 1
    14    7   22 1
    15    8    9 1
    16    8   10 1
    17    8   11 1
    18   10   23 1
    19   10   24 1
    20   10   25 1
    21   11   12 am
    22   11   26 1
    23   12   13 2
    24   12   14 1
    25   14   15 1
    26   14   16 1
    27   14   27 1
    28   15   28 1
    29   15   29 1
    30   15   30 1
    31   16   31 1
    32   16   32 1
    33   16   33 1
@<TRIPOS>MOLECULE
ZINC53883404
   44    45     0     0     0
SMALL
USER_CHARGES

@<TRIPOS>ATOM
      1 C1          2.5546   -2.2851   -2.4053 C.3       1 <0>        -0.1463
      2 C2          1.5413   -1.9054   -1.3236 C.3       1 <0>        -0.0932
      3 H1          0.5761   -2.3554   -1.5560 H         1 <0>         0.0638
      4 C3          1.3955   -0.3832   -1.2732 C.3       1 <0>        -0.1102
      5 C4          0.3822   -0.0036   -0.1915 C.3       1 <0>        -0.1517
      6 C5          0.8696   -0.5145    1.1658 C.3       1 <0>         0.1100
      7 H2          0.1477   -0.2440    1.9364 H         1 <0>         0.0499
      8 C6          1.0154   -2.0367    1.1153 C.3       1 <0>        -0.0723
      9 H3          0.0502   -2.4866    0.8830 H         1 <0>         0.0775
     10 C7          2.0287   -2.4163    0.0337 C.3       1 <0>        -0.0944
     11 C8          1.5028   -2.5476    2.4727 C.3       1 <0>         0.0647
     12 N1          1.5227   -4.0164    2.4646 N.3       1 <0>        -0.5279
     13 C9          0.1583   -4.5621    2.5074 C.3       1 <0>         0.0187
     14 C10         0.2231   -6.0901    2.4371 C.3       1 <0>         0.0897
     15 H4          0.6578   -6.3925    1.4845 H         1 <0>         0.0658
     16 O1          1.0350   -6.5775    3.5088 O.3       1 <0>        -0.3798
     17 C11         2.3708   -6.0668    3.4975 C.3       1 <0>         0.0699
     18 C12         2.3277   -4.5385    3.5784 C.3       1 <0>         0.0440
     19 H5          3.3409   -4.1419    3.5125 H         1 <0>         0.0924
     20 C13         1.6976   -4.1148    4.9067 C.3       1 <0>        -0.1817
     21 C14        -1.1884   -6.6675    2.5608 C.3       1 <0>        -0.1460
     22 O2          2.1350    0.0754    1.4704 O.3       1 <0>        -0.5599
     23 H6          2.6585   -3.3696   -2.4412 H         1 <0>         0.0541
     24 H7          2.2074   -1.9211   -3.3723 H         1 <0>         0.0516
     25 H8          3.5198   -1.8352   -2.1730 H         1 <0>         0.0539
     26 H9          2.3607    0.0667   -1.0409 H         1 <0>         0.0682
     27 H10         1.0482   -0.0193   -2.2402 H         1 <0>         0.0579
     28 H11         0.2783    1.0809   -0.1556 H         1 <0>         0.0640
     29 H12        -0.5830   -0.4535   -0.4239 H         1 <0>         0.0694
     30 H13         2.1326   -3.5008   -0.0023 H         1 <0>         0.0710
     31 H14         2.9939   -1.9664    0.2660 H         1 <0>         0.0669
     32 H15         2.5081   -2.1716    2.6627 H         1 <0>         0.0830
     33 H16         0.8300   -2.1976    3.2555 H         1 <0>         0.0341
     34 H17        -0.3253   -4.2606    3.4366 H         1 <0>         0.0462
     35 H18        -0.4122   -4.1826    1.6596 H         1 <0>         0.0836
     36 H19         2.9186   -6.4613    4.3532 H         1 <0>         0.0975
     37 H20         2.8680   -6.3685    2.5756 H         1 <0>         0.0587
     38 H21         0.6853   -4.5137    4.9722 H         1 <0>         0.0633
     39 H22         2.2949   -4.5022    5.7321 H         1 <0>         0.0626
     40 H23         1.6638   -3.0268    4.9621 H         1 <0>         0.0550
     41 H24        -1.8071   -6.2925    1.7455 H         1 <0>         0.0719
     42 H25        -1.1416   -7.7553    2.5108 H         1 <0>         0.0667
     43 H26        -1.6220   -6.3660    3.5143 H         1 <0>         0.0618
     44 H27         2.1174    1.0411    1.5185 H         1 <0>         0.3752
@<TRIPOS>BOND
     1    1    2 1
     2    1   23 1
     3    1   24 1
     4    1   25 1
     5    2    3 1
     6    2   10 1
     7    2    4 1
     8    4    5 1
     9    4   26 1
    10    4   27 1
    11    5    6 1
    12    5   28 1
    13    5   29 1
    14    6    7 1
    15    6    8 1
    16    6   22 1
    17    8    9 1
    18    8   10 1
    19    8   11 1
    20   10   30 1
    21   10   31 1
    22   11   12 1
    23   11   32 1
    24   11   33 1
    25   12   18 1
    26   12   13 1
    27   13   14 1
    28   13   34 1
    29   13   35 1
    30   14   15 1
    31   14   16 1
    32   14   21 1
    33   16   17 1
    34   17   18 1
    35   17   36 1
    36   17   37 1
    37   18   19 1
    38   18   20 1
    39   20   38 1
    40   20   39 1
    41   20   40 1
    42   21   41 1
    43   21   42 1
    44   21   43 1
    45   22   44 1
@<TRIPOS>MOLECULE
ZINC62721965
   32    33     0     0     0
SMALL
USER_CHARGES

@<TRIPOS>ATOM
      1 C1         -0.0187    1.5258    0.0104 C.3       1 <0>        -0.1587
      2 C2          0.0021   -0.0041    0.0020 C.3       1 <0>         0.1358
      3 H1          0.5117   -0.3593   -0.8936 H         1 <0>         0.0721
      4 C3         -1.4339   -0.5400    0.0259 C.3       1 <0>         0.0512
      5 O1         -1.4042   -1.9580    0.2052 O.3       1 <0>        -0.3788
      6 C4         -0.8266   -2.3794    1.4432 C.3       1 <0>         0.0463
      7 C5          0.6405   -1.9377    1.4919 C.3       1 <0>         0.1098
      8 N1          0.7021   -0.4968    1.1989 N.pl3     1 <0>        -0.6704
      9 C6          1.4051    0.3795    2.0347 C.ar      1 <0>         0.1152
     10 C7          2.7479    0.6455    1.7936 C.ar      1 <0>         0.1192
     11 C8          3.4389    1.5121    2.6213 C.ar      1 <0>        -0.1403
     12 C9          2.7956    2.1132    3.6875 C.ar      1 <0>        -0.0394
     13 C10         1.4599    1.8507    3.9308 C.ar      1 <0>        -0.1404
     14 C11         0.7605    0.9900    3.1040 C.ar      1 <0>         0.1177
     15 F1         -0.5460    0.7390    3.3390 F         1 <0>        -0.1245
     16 C12         3.5522    3.0563    4.5870 C.3       1 <0>         0.1164
     17 O2          3.4445    4.3878    4.0795 O.3       1 <0>        -0.5656
     18 F2          3.3775    0.0580    0.7526 F         1 <0>        -0.1230
     19 H2          1.0039    1.9031    0.0027 H         1 <0>         0.0616
     20 H3         -0.5459    1.8868   -0.8726 H         1 <0>         0.0749
     21 H4         -0.5289    1.8773    0.9072 H         1 <0>         0.0606
     22 H5         -1.9805   -0.0803    0.8493 H         1 <0>         0.0557
     23 H6         -1.9269   -0.3025   -0.9168 H         1 <0>         0.1013
     24 H7         -1.3709   -1.9264    2.2718 H         1 <0>         0.0549
     25 H8         -0.8826   -3.4653    1.5202 H         1 <0>         0.1021
     26 H9          1.0485   -2.1283    2.4845 H         1 <0>         0.0786
     27 H10         1.2146   -2.4882    0.7466 H         1 <0>         0.0649
     28 H11         4.4823    1.7193    2.4346 H         1 <0>         0.1448
     29 H12         0.9611    2.3216    4.7650 H         1 <0>         0.1445
     30 H13         3.1321    3.0154    5.5919 H         1 <0>         0.0635
     31 H14         4.6017    2.7637    4.6197 H         1 <0>         0.0636
     32 H15         3.9088    5.0497    4.6100 H         1 <0>         0.3866
@<TRIPOS>BOND
     1    1    2 1
     2    1   19 1
     3    1   20 1
     4    1   21 1
     5    2    3 1
     6    2    8 1
     7    2    4 1
     8    4    5 1
     9    4   22 1
    10    4   23 1
    11    5    6 1
    12    6    7 1
    13    6   24 1
    14    6   25 1
    15    7    8 1
    16    7   26 1
    17    7   27 1
    18    8    9 1
    19    9   14 ar
    20    9   10 ar
    21   10   11 ar
    22   10   18 1
    23   11   12 ar
    24   11   28 1
    25   12   13 ar
    26   12   16 1
    27   13   14 ar
    28   13   29 1
    29   14   15 1
    30   16   17 1
    31   16   30 1
    32   16   31 1
    33   17   32 1
@<TRIPOS>MOLECULE
ZINC01561902
   30    29     0     0     0
SMALL
USER_CHARGES
3-chlorobut-2-enyl-diethyl-methyl-ammonium
@<TRIPOS>ATOM
      1 C1         -0.6298    1.3003   -1.0185 C.3       1 <0>        -0.1931
      2 C2          0.0500    0.9619    0.3098 C.3       1 <0>        -0.0160
      3 N1         -0.6973    1.5794    1.4135 N.4       1 <0>        -0.2640
      4 C3         -0.0446    1.2545    2.6888 C.3       1 <0>        -0.0537
      5 C4         -2.0729    1.0640    1.4222 C.3       1 <0>        -0.0145
      6 C5         -2.0475   -0.4542    1.6099 C.3       1 <0>        -0.1887
      7 C6         -0.7216    3.0371    1.2333 C.3       1 <0>         0.0308
      8 C7          0.6896    3.5658    1.2244 C.2       1 <0>        -0.2346
      9 C8          1.1029    4.3151    0.2304 C.2       1 <0>        -0.0028
     10 C9          0.1303    4.7650   -0.8291 C.3       1 <0>        -0.1490
     11 Cl1         2.7704    4.7887    0.1355 Cl        1 <0>        -0.0388
     12 H1         -0.0753    0.8422   -1.8375 H         1 <0>         0.1062
     13 H2         -1.6505    0.9179   -1.0121 H         1 <0>         0.0824
     14 H3         -0.6478    2.3819   -1.1522 H         1 <0>         0.0786
     15 H4          0.0681   -0.1197    0.4435 H         1 <0>         0.1313
     16 H5          1.0707    1.3443    0.3033 H         1 <0>         0.1277
     17 H6          0.9761    1.6369    2.6824 H         1 <0>         0.1223
     18 H7         -0.5991    1.7127    3.5078 H         1 <0>         0.1231
     19 H8         -0.0266    0.1729    2.8226 H         1 <0>         0.1248
     20 H9         -2.6274    1.5222    2.2412 H         1 <0>         0.1288
     21 H10        -2.5572    1.3051    0.4759 H         1 <0>         0.1294
     22 H11        -3.0683   -0.8366    1.6163 H         1 <0>         0.1055
     23 H12        -1.4931   -0.9123    0.7909 H         1 <0>         0.0810
     24 H13        -1.5633   -0.6952    2.5562 H         1 <0>         0.0821
     25 H14        -1.2059    3.2782    0.2870 H         1 <0>         0.1354
     26 H15        -1.2761    3.4953    2.0523 H         1 <0>         0.1381
     27 H16         1.3605    3.3277    2.0365 H         1 <0>         0.1471
     28 H17        -0.8480    4.9303   -0.3778 H         1 <0>         0.0884
     29 H18         0.4851    5.6930   -1.2775 H         1 <0>         0.0975
     30 H19         0.0504    3.9971   -1.5986 H         1 <0>         0.0948
@<TRIPOS>BOND
     1    1    2 1
     2    1   12 1
     3    1   13 1
     4    1   14 1
     5    2    3 1
     6    2   15 1
     7    2   16 1
     8    3    4 1
     9    3    5 1
    10    3    7 1
    11    4   17 1
    12    4   18 1
    13    4   19 1
    14    5    6 1
    15    5   20 1
    16    5   21 1
    17    6   22 1
    18    6   23 1
    19    6   24 1
    20    7    8 1
    21    7   25 1
    22    7   26 1
    23    8    9 2
    24    8   27 1
    25    9   10 1
    26    9   11 1
    27   10   28 1
    28   10   29 1
    29   10   30 1
@<TRIPOS>MOLECULE
ZINC06184003
   28    28     0     0     0
SMALL
USER_CHARGES
(4-hydroxy-1,1-dioxo-thiolan-3-yl)-trimethyl-ammonium
@<TRIPOS>ATOM
      1 C1         -2.1379   -0.2178   -0.6674 C.3       1 <0>        -0.0529
      2 N1         -1.2864   -0.5103    0.4934 N.4       1 <0>        -0.2462
      3 C2         -1.3583   -1.9442    0.8045 C.3       1 <0>        -0.0669
      4 C3         -1.7524    0.2658    1.6503 C.3       1 <0>        -0.0654
      5 C4          0.1028   -0.1450    0.1861 C.3       1 <0>         0.0304
      6 H1          0.3617   -0.5144   -0.8062 H         1 <0>         0.1662
      7 C5          0.2454    1.4025    0.2120 C.3       1 <0>        -0.6252
      8 S1          2.0723    1.5393    0.4447 S.o2      1 <0>         2.3921
      9 O1          2.7173    1.3686   -0.8099 O.2       1 <0>        -0.8991
     10 O2          2.3584    2.6867    1.2327 O.2       1 <0>        -0.8972
     11 C6          2.3217    0.0268    1.4646 C.3       1 <0>        -0.6154
     12 C7          1.0315   -0.7800    1.2200 C.3       1 <0>         0.0913
     13 H2          1.3060   -1.7775    0.8770 H         1 <0>         0.1157
     14 O3          0.3256   -0.9007    2.4566 O.3       1 <0>        -0.5595
     15 H3         -1.7922   -0.7937   -1.5259 H         1 <0>         0.1229
     16 H4         -3.1687   -0.4889   -0.4394 H         1 <0>         0.1278
     17 H5         -2.0845    0.8461   -0.8983 H         1 <0>         0.1224
     18 H6         -0.8296   -2.1405    1.7372 H         1 <0>         0.1508
     19 H7         -2.4018   -2.2415    0.9088 H         1 <0>         0.1217
     20 H8         -0.8969   -2.5145   -0.0017 H         1 <0>         0.1155
     21 H9         -1.9929    1.2807    1.3340 H         1 <0>         0.1157
     22 H10        -2.6419   -0.2048    2.0690 H         1 <0>         0.1222
     23 H11        -0.9679    0.2972    2.4065 H         1 <0>         0.1562
     24 H12        -0.0692    1.8464   -0.7326 H         1 <0>         0.1685
     25 H13        -0.2959    1.8374    1.0522 H         1 <0>         0.1667
     26 H14         2.4196    0.2856    2.5189 H         1 <0>         0.1661
     27 H15         3.1943   -0.5305    1.1239 H         1 <0>         0.1641
     28 H16         0.8457   -1.2962    3.1695 H         1 <0>         0.4116
@<TRIPOS>BOND
     1    1    2 1
     2    1   15 1
     3    1   16 1
     4    1   17 1
     5    2    3 1
     6    2    4 1
     7    2    5 1
     8    3   18 1
     9    3   19 1
    10    3   20 1
    11    4   21 1
    12    4   22 1
    13    4   23 1
    14    5    6 1
    15    5   12 1
    16    5    7 1
    17    7    8 1
    18    7   24 1
    19    7   25 1
    20    8    9 2
    21    8   10 2
    22    8   11 1
    23   11   12 1
    24   11   26 1
    25   11   27 1
    26   12   13 1
    27   12   14 1
    28   14   28 1
@<TRIPOS>MOLECULE
ZINC13763792
   39    39     0     0     0
SMALL
USER_CHARGES
(2R,4S,5S)-1,1-diallyl-2,5-dimethyl-piperidin-1-ium-4-ol
@<TRIPOS>ATOM
      1 C1          2.1486    1.1211    3.5958 C.3       1 <0>        -0.1831
      2 C2          1.4455    1.6783    2.3564 C.3       1 <0>         0.0328
      3 H1          1.5020    2.7668    2.3658 H         1 <0>         0.1370
      4 C3         -0.0218    1.2442    2.3656 C.3       1 <0>        -0.1795
      5 C4         -0.7217    1.8037    1.1237 C.3       1 <0>         0.1021
      6 H2         -0.7092    2.8931    1.1580 H         1 <0>         0.0730
      7 C5          0.0182    1.3222   -0.1277 C.3       1 <0>        -0.1069
      8 H3         -0.0385    0.2354   -0.1885 H         1 <0>         0.1017
      9 C6          1.4840    1.7535   -0.0444 C.3       1 <0>        -0.0035
     10 N1          2.1039    1.1652    1.1490 N.4       1 <0>        -0.2563
     11 C7          1.9651   -0.2964    1.1010 C.3       1 <0>         0.0150
     12 C8          2.6370   -0.8243   -0.1403 C.2       1 <0>        -0.2293
     13 C9          3.5691   -1.7395   -0.0418 C.2       1 <0>        -0.1086
     14 C10         3.5295    1.5180    1.1829 C.3       1 <0>         0.0269
     15 C11         3.6743    3.0086    1.3510 C.2       1 <0>        -0.2283
     16 C12         4.3932    3.4901    2.3346 C.2       1 <0>        -0.1107
     17 C13        -0.6256    1.9379   -1.3716 C.3       1 <0>        -0.1466
     18 O1         -2.0731    1.3407    1.0875 O.3       1 <0>        -0.5499
     19 H4          3.1934    1.4319    3.5914 H         1 <0>         0.0820
     20 H5          1.6601    1.5019    4.4927 H         1 <0>         0.1050
     21 H6          2.0934    0.0326    3.5863 H         1 <0>         0.0804
     22 H7         -0.0794    0.1557    2.3565 H         1 <0>         0.0966
     23 H8         -0.5090    1.6270    3.2623 H         1 <0>         0.1132
     24 H9          2.0137    1.4125   -0.9339 H         1 <0>         0.1351
     25 H10         1.5396    2.8404    0.0167 H         1 <0>         0.1288
     26 H11         2.4336   -0.7350    1.9821 H         1 <0>         0.1293
     27 H12         0.9078   -0.5606    1.0822 H         1 <0>         0.1383
     28 H13         2.3501   -0.4481   -1.1112 H         1 <0>         0.1332
     29 H14         4.0506   -2.1178   -0.9314 H         1 <0>         0.1234
     30 H15         3.8560   -2.1157    0.9290 H         1 <0>         0.1103
     31 H16         4.0097    1.0097    2.0191 H         1 <0>         0.1286
     32 H17         4.0023    1.2099    0.2504 H         1 <0>         0.1343
     33 H18         3.1853    3.6799    0.6606 H         1 <0>         0.1322
     34 H19         4.4970    4.5583    2.4550 H         1 <0>         0.1232
     35 H20         4.8822    2.8188    3.0250 H         1 <0>         0.1103
     36 H21        -0.0969    1.5960   -2.2613 H         1 <0>         0.0678
     37 H22        -1.6701    1.6316   -1.4295 H         1 <0>         0.0847
     38 H23        -0.5685    3.0247   -1.3101 H         1 <0>         0.0649
     39 H24        -2.6016    1.6095    1.8514 H         1 <0>         0.3926
@<TRIPOS>BOND
     1    1    2 1
     2    1   19 1
     3    1   20 1
     4    1   21 1
     5    2    3 1
     6    2   10 1
     7    2    4 1
     8    4    5 1
     9    4   22 1
    10    4   23 1
    11    5    6 1
    12    5    7 1
    13    5   18 1
    14    7    8 1
    15    7    9 1
    16    7   17 1
    17    9   10 1
    18    9   24 1
    19    9   25 1
    20   10   11 1
    21   10   14 1
    22   11   12 1
    23   11   26 1
    24   11   27 1
    25   12   13 2
    26   12   28 1
    27   13   29 1
    28   13   30 1
    29   14   15 1
    30   14   31 1
    31   14   32 1
    32   15   16 2
    33   15   33 1
    34   16   34 1
    35   16   35 1
    36   17   36 1
    37   17   37 1
    38   17   38 1
    39   18   39 1
@<TRIPOS>MOLECULE
ZINC22860405
   28    30     0     0     0
SMALL
USER_CHARGES
(3S,4S)-3,4-bis(aziridin-1-yl)thiolane 1,1-dioxide
@<TRIPOS>ATOM
      1 C1          0.1832    0.6305    2.9669 C.3       1 <0>        -0.0024
      2 C2         -0.5206    1.9545    3.2714 C.3       1 <0>         0.0363
      3 N1          0.0480    1.6776    1.9455 N.4       1 <0>        -0.4721
      4 C3         -1.0067    1.3389    0.9807 C.3       1 <0>         0.0340
      5 H1         -1.6625    0.5692    1.4137 H         1 <0>         0.1597
      6 C4         -0.3483    0.7682   -0.2905 C.3       1 <0>        -0.6235
      7 S1         -1.0290    1.8266   -1.6346 S.o2      1 <0>         2.3834
      8 O1         -0.1037    2.8651   -1.9256 O.2       1 <0>        -0.9046
      9 O2         -1.5096    0.9979   -2.6840 O.2       1 <0>        -0.8963
     10 C5         -2.4648    2.5332   -0.7127 C.3       1 <0>        -0.6015
     11 C6         -1.8543    2.5867    0.7157 C.3       1 <0>         0.0219
     12 H2         -1.2351    3.4869    0.8430 H         1 <0>         0.1167
     13 N2         -2.9379    2.6572    1.7050 N.3       1 <0>        -0.5233
     14 C7         -4.2315    2.8999    1.0526 C.3       1 <0>        -0.0460
     15 C8         -3.4878    4.0169    1.7876 C.3       1 <0>        -0.0203
     16 H3         -0.3150   -0.2867    2.6198 H         1 <0>         0.1522
     17 H4          1.2495    0.4247    3.1422 H         1 <0>         0.1540
     18 H5         -1.5611    1.7568    3.5685 H         1 <0>         0.1947
     19 H6          0.0033    2.4683    4.0908 H         1 <0>         0.1855
     20 H7          0.7453    0.8498   -0.2052 H         1 <0>         0.1579
     21 H8         -0.6292   -0.2891   -0.4059 H         1 <0>         0.1762
     22 H9         -2.7199    3.5183   -1.1305 H         1 <0>         0.1702
     23 H10        -3.3292    1.8595   -0.8080 H         1 <0>         0.1731
     24 H11        -4.1465    2.6827   -0.0224 H         1 <0>         0.1351
     25 H12        -4.9957    2.2468    1.4993 H         1 <0>         0.1289
     26 H13        -3.6360    4.2890    2.8431 H         1 <0>         0.1288
     27 H14        -2.7868    4.7249    1.3214 H         1 <0>         0.1046
     28 H15         0.7553    2.2047    1.2884 H         1 <0>         0.4767
@<TRIPOS>BOND
     1    1    3 1
     2    1    2 1
     3    1   16 1
     4    1   17 1
     5    2    3 1
     6    2   18 1
     7    2   19 1
     8    3    4 1
     9    3   28 1
    10    4    5 1
    11    4   11 1
    12    4    6 1
    13    6    7 1
    14    6   20 1
    15    6   21 1
    16    7    8 2
    17    7    9 2
    18    7   10 1
    19   10   11 1
    20   10   22 1
    21   10   23 1
    22   11   12 1
    23   11   13 1
    24   13   15 1
    25   13   14 1
    26   14   15 1
    27   14   24 1
    28   14   25 1
    29   15   26 1
    30   15   27 1
@<TRIPOS>MOLECULE
ZINC39082779
   27    27     0     0     0
SMALL
USER_CHARGES

@<TRIPOS>ATOM
      1 C1         -0.0187    1.5258    0.0104 C.3       1 <0>        -0.1580
      2 C2          0.0021   -0.0041    0.0020 C.3       1 <0>        -0.1226
      3 C3          0.7182   -0.4975   -1.2568 C.3       1 <0>        -0.1398
      4 C4          0.7390   -2.0273   -1.2652 C.3       1 <0>         0.0415
      5 N1          1.4247   -2.4998   -2.4705 N.pl3     1 <0>        -0.3295
      6 C5          2.5317   -3.1474   -2.3484 C.2       1 <0>         0.2763
      7 C6          3.2693   -3.6509   -3.5615 C.3       1 <0>        -0.1186
      8 C7          2.2562   -4.0339   -4.6442 C.3       1 <0>        -0.0507
      9 C8          1.2275   -2.9374   -4.7614 C.2       1 <0>        -0.0820
     10 C9          0.8723   -2.2475   -3.6878 C.2       1 <0>        -0.0245
     11 S1          1.4385   -5.5877   -4.1885 S.3       1 <0>        -0.2097
     12 H1          1.0039    1.9031    0.0027 H         1 <0>         0.0588
     13 H2         -0.5459    1.8868   -0.8726 H         1 <0>         0.0585
     14 H3         -0.5289    1.8773    0.9072 H         1 <0>         0.0671
     15 H4          0.5293   -0.3651    0.8851 H         1 <0>         0.0736
     16 H5         -1.0205   -0.3814    0.0098 H         1 <0>         0.0735
     17 H6          0.1910   -0.1364   -2.1398 H         1 <0>         0.0831
     18 H7          1.7408   -0.1202   -1.2645 H         1 <0>         0.0828
     19 H8          1.2661   -2.3884   -0.3821 H         1 <0>         0.1303
     20 H9         -0.2836   -2.4046   -1.2575 H         1 <0>         0.1315
     21 H10         2.9358   -3.3319   -1.3640 H         1 <0>         0.2160
     22 H11         3.9269   -2.8678   -3.9389 H         1 <0>         0.1586
     23 H12         2.7698   -4.1559   -5.5978 H         1 <0>         0.1461
     24 H13         0.7781   -2.7181   -5.7186 H         1 <0>         0.1733
     25 H14         0.1322   -1.4666   -3.7826 H         1 <0>         0.1909
     26 H15         0.5846   -5.8155   -5.2024 H         1 <0>         0.1167
     27 H16         3.8611   -4.5253   -3.2910 H         1 <0>         0.1567
@<TRIPOS>BOND
     1    1    2 1
     2    1   12 1
     3    1   13 1
     4    1   14 1
     5    2    3 1
     6    2   15 1
     7    2   16 1
     8    3    4 1
     9    3   17 1
    10    3   18 1
    11    4    5 1
    12    4   19 1
    13    4   20 1
    14    5   10 1
    15    5    6 2
    16    6    7 1
    17    6   21 1
    18    7    8 1
    19    7   22 1
    20    7   27 1
    21    8    9 1
    22    8   11 1
    23    8   23 1
    24    9   10 2
    25    9   24 1
    26   10   25 1
    27   11   26 1
@<TRIPOS>MOLECULE
ZINC27065953
   47    49     0     0     0
SMALL
USER_CHARGES
3-[(E)-(3,4,5-trimethoxyphenyl)methyliminomethyl]quinolin-2-ol
@<TRIPOS>ATOM
      1 C1         -0.0127    1.0858    0.0080 C.3       1 <0>         0.0178
      2 O1         -0.6816    1.5467    1.1837 O.3       1 <0>        -0.2946
      3 C2         -0.7875    2.8927    1.3463 C.ar      1 <0>         0.1551
      4 C3         -0.2586    3.7508    0.3940 C.ar      1 <0>        -0.2102
      5 C4         -0.3657    5.1191    0.5583 C.ar      1 <0>        -0.0661
      6 C5         -0.9998    5.6377    1.6717 C.ar      1 <0>        -0.2159
      7 C6         -1.5314    4.7865    2.6286 C.ar      1 <0>         0.1532
      8 C7         -1.4309    3.4101    2.4642 C.ar      1 <0>         0.0534
      9 O2         -1.9566    2.5712    3.3981 O.3       1 <0>        -0.3121
     10 C8         -1.1017    2.1816    4.4748 C.3       1 <0>         0.0319
     11 O3         -2.1556    5.2977    3.7234 O.3       1 <0>        -0.2949
     12 C9         -2.2275    6.7214    3.8234 C.3       1 <0>         0.0196
     13 C10         0.2110    6.0479   -0.4789 C.3       1 <0>         0.0948
     14 N1         -0.8045    6.3364   -1.4946 N.pl3     1 <0>        -0.5221
     15 C11        -1.2591    7.5405   -1.6314 C.2       1 <0>         0.3476
     16 C12        -2.2807    7.8307   -2.6533 C.2       1 <0>        -0.2702
     17 C13        -2.7729    9.1207   -2.8056 C.2       1 <0>         0.1260
     18 C14        -3.7464    9.3447   -3.7947 C.ar      1 <0>        -0.1634
     19 C15        -4.2880   10.6244   -4.0044 C.ar      1 <0>        -0.0326
     20 C16        -5.2291   10.8071   -4.9712 C.ar      1 <0>        -0.1370
     21 C17        -5.6623    9.7410   -5.7566 C.ar      1 <0>        -0.0121
     22 C18        -5.1591    8.4883   -5.5802 C.ar      1 <0>        -0.1686
     23 C19        -4.1862    8.2586   -4.5926 C.ar      1 <0>         0.2174
     24 N2         -3.6786    7.0347   -4.4043 N.am      1 <0>        -0.5518
     25 C20        -2.7640    6.8005   -3.4909 C.2       1 <0>         0.5029
     26 O4         -2.2789    5.5445   -3.3449 O.2       1 <0>        -0.6059
     27 H1          0.0022   -0.0141    0.0020 H         1 <0>         0.1127
     28 H2          1.0193    1.4665    0.0002 H         1 <0>         0.0614
     29 H3         -0.5447    1.4502   -0.8832 H         1 <0>         0.0603
     30 H4          0.2374    3.3495   -0.4774 H         1 <0>         0.1416
     31 H5         -1.0818    6.7074    1.7963 H         1 <0>         0.1384
     32 H6         -1.6481    1.5083    5.1516 H         1 <0>         0.1018
     33 H7         -0.7791    3.0755    5.0287 H         1 <0>         0.0488
     34 H8         -0.2199    1.6611    4.0729 H         1 <0>         0.0491
     35 H9         -2.7536    6.9978    4.7491 H         1 <0>         0.1119
     36 H10        -2.7740    7.1227    2.9572 H         1 <0>         0.0568
     37 H11        -1.2102    7.1396    3.8409 H         1 <0>         0.0609
     38 H12         0.5248    6.9858    0.0027 H         1 <0>         0.1238
     39 H13         1.0807    5.5713   -0.9549 H         1 <0>         0.1344
     40 H14        -0.8830    8.3472   -0.9850 H         1 <0>         0.2075
     41 H15        -2.4228    9.9547   -2.1796 H         1 <0>         0.1843
     42 H16        -3.9599   11.4583   -3.4016 H         1 <0>         0.1544
     43 H17        -5.6448   11.7909   -5.1316 H         1 <0>         0.1488
     44 H18        -6.4096    9.9110   -6.5176 H         1 <0>         0.1513
     45 H19        -5.5069    7.6733   -6.1976 H         1 <0>         0.1526
     46 H20        -1.1806    5.5297   -2.1410 H         1 <0>         0.4638
     47 H21        -4.0264    6.1939   -5.0225 H         1 <0>         0.4730
@<TRIPOS>BOND
     1    1    2 1
     2    1   27 1
     3    1   28 1
     4    1   29 1
     5    2    3 1
     6    3    8 ar
     7    3    4 ar
     8    4    5 ar
     9    4   30 1
    10    5    6 ar
    11    5   13 1
    12    6    7 ar
    13    6   31 1
    14    7    8 ar
    15    7   11 1
    16    8    9 1
    17    9   10 1
    18   10   32 1
    19   10   33 1
    20   10   34 1
    21   11   12 1
    22   12   35 1
    23   12   36 1
    24   12   37 1
    25   13   14 1
    26   13   38 1
    27   13   39 1
    28   14   15 1
    29   14   46 1
    30   15   16 2
    31   15   40 1
    32   16   25 1
    33   16   17 1
    34   17   18 2
    35   17   41 1
    36   18   23 ar
    37   18   19 ar
    38   19   20 ar
    39   19   42 1
    40   20   21 ar
    41   20   43 1
    42   21   22 ar
    43   21   44 1
    44   22   23 ar
    45   22   45 1
    46   23   24 2
    47   24   25 am
    48   24   47 1
    49   25   26 2
@<TRIPOS>MOLECULE
ZINC40154795
   46    48     0     0     0
SMALL
USER_CHARGES

@<TRIPOS>ATOM
      1 C1          0.0330    1.5861   -0.0239 C.3       1 <0>        -0.1459
      2 C2          0.0274    0.0562   -0.0118 C.3       1 <0>        -0.1265
      3 H1         -1.0015   -0.3033    0.0027 H         1 <0>         0.1275
      4 C3          0.7221   -0.4585   -1.2461 C.2       1 <0>         0.5445
      5 O1          1.8727   -0.8363   -1.1814 O.2       1 <0>        -0.5038
      6 N1          0.0646   -0.4990   -2.4220 N.am      1 <0>        -0.7289
      7 C4          0.7399   -0.9993   -3.6219 C.3       1 <0>         0.1659
      8 C5         -0.2070   -0.9400   -4.7928 C.ar      1 <0>        -0.1631
      9 C6         -1.0301   -2.0198   -5.0846 C.ar      1 <0>         0.0512
     10 C7         -1.8845   -1.9247   -6.1680 C.ar      1 <0>        -0.1974
     11 C8         -1.8904   -0.7569   -6.9245 C.ar      1 <0>         0.4499
     12 N2         -1.0902    0.2511   -6.6139 N.ar      1 <0>        -0.5082
     13 C9         -0.2689    0.1902   -5.5826 C.ar      1 <0>         0.1673
     14 N3         -2.7438   -0.6478   -8.0163 N.pl3     1 <0>        -0.5794
     15 C10        -2.8625    0.6196   -8.7498 C.3       1 <0>         0.0957
     16 C11        -2.6090    0.3542  -10.2371 C.3       1 <0>        -0.1391
     17 C12        -3.5563   -0.7449  -10.7238 C.3       1 <0>        -0.1286
     18 C13        -3.2830   -2.0361   -9.9492 C.3       1 <0>        -0.1406
     19 C14        -3.5396   -1.7995   -8.4624 C.3       1 <0>         0.1060
     20 S1          0.8970   -0.5399    1.4644 S.3       1 <0>         0.1369
     21 C15        -0.1064    0.0135    2.8028 C.2       1 <0>         0.0093
     22 N4         -1.2419    0.7003    2.7918 N.2       1 <0>        -0.2910
     23 N5         -1.8368    1.0176    3.8577 N.2       1 <0>        -0.2739
     24 C16        -1.3719    0.6894    5.0459 C.2       1 <0>         0.0576
     25 S2          0.1091   -0.1962    4.5680 S.3       1 <0>         0.0412
     26 H2          1.0619    1.9456   -0.0384 H         1 <0>         0.0775
     27 H3         -0.4895    1.9443   -0.9109 H         1 <0>         0.0724
     28 H4         -0.4694    1.9584    0.8689 H         1 <0>         0.0883
     29 H5         -0.8557   -0.1968   -2.4737 H         1 <0>         0.4060
     30 H6          1.6145   -0.3830   -3.8303 H         1 <0>         0.0973
     31 H7          1.0526   -2.0307   -3.4594 H         1 <0>         0.1020
     32 H8         -1.0034   -2.9139   -4.4794 H         1 <0>         0.1764
     33 H9         -2.5380   -2.7457   -6.4235 H         1 <0>         0.1825
     34 H10         0.3660    1.0341   -5.3563 H         1 <0>         0.2075
     35 H11        -3.8651    1.0262   -8.6170 H         1 <0>         0.1040
     36 H12        -2.1254    1.3295   -8.3745 H         1 <0>         0.0765
     37 H13        -2.7883    1.2669  -10.8053 H         1 <0>         0.0953
     38 H14        -1.5768    0.0338  -10.3787 H         1 <0>         0.0742
     39 H15        -4.5880   -0.4341  -10.5592 H         1 <0>         0.0748
     40 H16        -3.3949   -0.9185  -11.7877 H         1 <0>         0.0828
     41 H17        -3.9420   -2.8247  -10.3125 H         1 <0>         0.0971
     42 H18        -2.2445   -2.3340  -10.0935 H         1 <0>         0.0745
     43 H19        -3.2491   -2.6853   -7.8975 H         1 <0>         0.1016
     44 H20        -4.5986   -1.5946   -8.3055 H         1 <0>         0.0982
     45 H21        -1.7724    0.8925    6.0281 H         1 <0>         0.2444
     46 H22        -1.1107    1.0556   -7.1555 H         1 <0>         0.4402
@<TRIPOS>BOND
     1    1    2 1
     2    1   26 1
     3    1   27 1
     4    1   28 1
     5    2    3 1
     6    2    4 1
     7    2   20 1
     8    4    5 2
     9    4    6 am
    10    6    7 1
    11    6   29 1
    12    7    8 1
    13    7   30 1
    14    7   31 1
    15    8   13 ar
    16    8    9 ar
    17    9   10 ar
    18    9   32 1
    19   10   11 ar
    20   10   33 1
    21   11   12 ar
    22   11   14 1
    23   12   13 ar
    24   12   46 1
    25   13   34 1
    26   14   19 1
    27   14   15 1
    28   15   16 1
    29   15   35 1
    30   15   36 1
    31   16   17 1
    32   16   37 1
    33   16   38 1
    34   17   18 1
    35   17   39 1
    36   17   40 1
    37   18   19 1
    38   18   41 1
    39   18   42 1
    40   19   43 1
    41   19   44 1
    42   20   21 1
    43   21   25 1
    44   21   22 2
    45   22   23 1
    46   23   24 2
    47   24   25 1
    48   24   45 1
@<TRIPOS>MOLECULE
ZINC54835294
   53    55     0     0     0
SMALL
USER_CHARGES

@<TRIPOS>ATOM
      1 C1         -0.0187    1.5258    0.0104 C.3       1 <0>        -0.1507
      2 C2          0.0021   -0.0041    0.0020 C.3       1 <0>        -0.1111
      3 H1          0.5122   -0.3562   -0.8946 H         1 <0>         0.0923
      4 C3         -1.4343   -0.5350    0.0151 C.3       1 <0>        -0.1288
      5 C4         -1.4020   -2.0645    0.0857 C.3       1 <0>        -0.1124
      6 H2         -2.4205   -2.4474    0.1515 H         1 <0>         0.1201
      7 C5         -0.6129   -2.4960    1.3237 C.3       1 <0>        -0.0034
      8 N1          0.7584   -1.9796    1.2388 N.4       1 <0>        -0.3818
      9 C6          0.7401   -0.5119    1.2425 C.3       1 <0>        -0.0109
     10 C7          1.5335   -2.4611    2.3901 C.3       1 <0>         0.0802
     11 C8          2.9712   -2.0344    2.2415 C.2       1 <0>         0.0244
     12 C9          3.4387   -0.9050    2.8277 C.2       1 <0>        -0.2644
     13 S1          5.1455   -0.9408    2.3049 S.3       1 <0>         0.2938
     14 C10         5.0851   -2.3653    1.4106 C.2       1 <0>         0.2626
     15 N2          3.8327   -2.7468    1.5394 N.2       1 <0>        -0.5609
     16 N3          6.1106   -2.9896    0.7101 N.am      1 <0>        -0.6151
     17 C11         7.3444   -2.4474    0.6960 C.2       1 <0>         0.5167
     18 O1          7.5599   -1.4148    1.2945 O.2       1 <0>        -0.4899
     19 C12         8.4562   -3.1242   -0.0635 C.3       1 <0>        -0.1267
     20 C13         9.7429   -2.3092    0.0817 C.3       1 <0>        -0.0226
     21 C14        10.8547   -2.9860   -0.6777 C.2       1 <0>        -0.2492
     22 C15        11.7289   -3.9524   -0.1696 C.2       1 <0>         0.0535
     23 N4         12.5528   -4.3007   -1.1244 N.2       1 <0>        -0.2917
     24 N5         12.2285   -3.5657   -2.2720 N.pl3     1 <0>        -0.3726
     25 C16        11.1799   -2.7705   -1.9734 C.2       1 <0>         0.0627
     26 C17        12.9045   -3.6499   -3.5690 C.3       1 <0>         0.0972
     27 C18        -0.7276   -2.6198   -1.1704 C.3       1 <0>        -0.1705
     28 H3          1.0039    1.9031    0.0027 H         1 <0>         0.0673
     29 H4         -0.5459    1.8868   -0.8726 H         1 <0>         0.0770
     30 H5         -0.5289    1.8773    0.9072 H         1 <0>         0.0680
     31 H6         -1.9606   -0.1411    0.8845 H         1 <0>         0.0841
     32 H7         -1.9466   -0.2229   -0.8949 H         1 <0>         0.0943
     33 H8         -1.0951   -2.1001    2.2175 H         1 <0>         0.1315
     34 H9         -0.5882   -3.5844    1.3771 H         1 <0>         0.1315
     35 H10         1.7630   -0.1355    1.2357 H         1 <0>         0.1276
     36 H11         0.2298   -0.1583    2.1385 H         1 <0>         0.1308
     37 H12         1.1222   -2.0391    3.3070 H         1 <0>         0.1444
     38 H13         1.4801   -3.5488    2.4348 H         1 <0>         0.1425
     39 H14         2.9213   -0.1825    3.4415 H         1 <0>         0.2045
     40 H15         5.9382   -3.8154    0.2314 H         1 <0>         0.4300
     41 H16         8.6132   -4.1255    0.3377 H         1 <0>         0.1096
     42 H17         8.1868   -3.1932   -1.1174 H         1 <0>         0.1066
     43 H18         9.5859   -1.3079   -0.3194 H         1 <0>         0.0788
     44 H19        10.0123   -2.2402    1.1357 H         1 <0>         0.0829
     45 H20        11.7245   -4.3436    0.8370 H         1 <0>         0.1835
     46 H21        10.6899   -2.0831   -2.6471 H         1 <0>         0.1738
     47 H22        12.4218   -4.4114   -4.1816 H         1 <0>         0.0776
     48 H23        12.8440   -2.6856   -4.0735 H         1 <0>         0.0897
     49 H24        13.9507   -3.9154   -3.4169 H         1 <0>         0.0925
     50 H25         0.2912   -2.2378   -1.2348 H         1 <0>         0.0499
     51 H26        -0.7050   -3.7084   -1.1195 H         1 <0>         0.0732
     52 H27        -1.2886   -2.3088   -2.0517 H         1 <0>         0.0842
     53 H28         1.1878   -2.3068    0.3863 H         1 <0>         0.4235
@<TRIPOS>BOND
     1    1    2 1
     2    1   28 1
     3    1   29 1
     4    1   30 1
     5    2    3 1
     6    2    9 1
     7    2    4 1
     8    4    5 1
     9    4   31 1
    10    4   32 1
    11    5    6 1
    12    5    7 1
    13    5   27 1
    14    7    8 1
    15    7   33 1
    16    7   34 1
    17    8    9 1
    18    8   10 1
    19    8   53 1
    20    9   35 1
    21    9   36 1
    22   10   11 1
    23   10   37 1
    24   10   38 1
    25   11   15 1
    26   11   12 2
    27   12   13 1
    28   12   39 1
    29   13   14 1
    30   14   15 2
    31   14   16 1
    32   16   17 am
    33   16   40 1
    34   17   18 2
    35   17   19 1
    36   19   20 1
    37   19   41 1
    38   19   42 1
    39   20   21 1
    40   20   43 1
    41   20   44 1
    42   21   25 2
    43   21   22 1
    44   22   23 2
    45   22   45 1
    46   23   24 1
    47   24   25 1
    48   24   26 1
    49   25   46 1
    50   26   47 1
    51   26   48 1
    52   26   49 1
    53   27   50 1
    54   27   51 1
    55   27   52 1
@<TRIPOS>MOLECULE
ZINC58328963
   54    56     0     0     0
SMALL
USER_CHARGES

@<TRIPOS>ATOM
      1 C1          0.0428    1.4527    0.0207 C.3       1 <0>        -0.0911
      2 C2          0.0431   -0.0541    0.0012 C.2       1 <0>         0.1094
      3 C3          0.0246   -0.8584   -1.1423 C.2       1 <0>        -0.3257
      4 C4          0.0318   -2.1566   -0.7385 C.2       1 <0>         0.3029
      5 N1          0.0540   -2.1644    0.6126 N.pl3     1 <0>        -0.3582
      6 N2          0.0664   -0.8342    1.0513 N.2       1 <0>        -0.2561
      7 C5          0.0685   -3.3540    1.4674 C.3       1 <0>         0.0866
      8 O1          0.0185   -3.2475   -1.5464 O.3       1 <0>        -0.3144
      9 C6         -1.2546   -3.8345   -1.8231 C.3       1 <0>         0.0273
     10 C7          0.0006   -0.3728   -2.5687 C.3       1 <0>         0.0894
     11 N3          1.3775   -0.2146   -3.0554 N.4       1 <0>        -0.5074
     12 C8          1.3541    0.2588   -4.4459 C.3       1 <0>         0.0899
     13 H1          0.7546   -0.4211   -5.0511 H         1 <0>         0.1397
     14 C9          0.7431    1.6606   -4.4971 C.3       1 <0>        -0.1776
     15 C10         2.7606    0.3039   -4.9850 C.ar      1 <0>        -0.2128
     16 C11         3.7949    0.7416   -4.1782 C.ar      1 <0>        -0.0642
     17 C12         5.0851    0.7842   -4.6691 C.ar      1 <0>        -0.1918
     18 C13         5.3432    0.3867   -5.9748 C.ar      1 <0>         0.2497
     19 C14         4.3018   -0.0525   -6.7826 C.ar      1 <0>        -0.1943
     20 C15         3.0149   -0.0979   -6.2835 C.ar      1 <0>        -0.0320
     21 N4          6.6467    0.4289   -6.4747 N.pl3     1 <0>        -0.6214
     22 C16         6.9625   -0.0967   -7.8124 C.3       1 <0>         0.0793
     23 C17         7.7498    0.9725   -8.5785 C.3       1 <0>         0.0445
     24 O2          8.8603    1.3981   -7.7851 O.3       1 <0>        -0.3739
     25 C18         8.4940    2.0164   -6.5493 C.3       1 <0>         0.0448
     26 C19         7.7438    1.0058   -5.6815 C.3       1 <0>         0.0802
     27 H2          1.0702    1.8165    0.0034 H         1 <0>         0.0868
     28 H3         -0.4900    1.8273   -0.8533 H         1 <0>         0.0831
     29 H4         -0.4520    1.8043    0.9261 H         1 <0>         0.0911
     30 H5          1.0969   -3.5965    1.7351 H         1 <0>         0.0916
     31 H6         -0.5060   -3.1579    2.3727 H         1 <0>         0.1027
     32 H7         -0.3746   -4.1927    0.9305 H         1 <0>         0.0947
     33 H8         -1.7555   -4.0746   -0.8853 H         1 <0>         0.0586
     34 H9         -1.8636   -3.1306   -2.3904 H         1 <0>         0.0627
     35 H10        -1.1159   -4.7458   -2.4047 H         1 <0>         0.1164
     36 H11        -0.5236   -1.0983   -3.1908 H         1 <0>         0.1311
     37 H12        -0.5144    0.5867   -2.6172 H         1 <0>         0.1399
     38 H13         1.8627    0.4571   -2.4796 H         1 <0>         0.4205
     39 H14         1.3426    2.3406   -3.8918 H         1 <0>         0.0810
     40 H15         0.7257    2.0119   -5.5288 H         1 <0>         0.1048
     41 H16        -0.2743    1.6280   -4.1072 H         1 <0>         0.0810
     42 H17         3.5935    1.0508   -3.1632 H         1 <0>         0.1169
     43 H18         5.8924    1.1264   -4.0386 H         1 <0>         0.1323
     44 H19         4.4990   -0.3619   -7.7983 H         1 <0>         0.1339
     45 H20         2.2055   -0.4433   -6.9095 H         1 <0>         0.1317
     46 H21         7.5653   -1.0000   -7.7190 H         1 <0>         0.0803
     47 H22         6.0390   -0.3244   -8.3447 H         1 <0>         0.0959
     48 H23         8.1122    0.5547   -9.5177 H         1 <0>         0.1114
     49 H24         7.1016    1.8244   -8.7841 H         1 <0>         0.0581
     50 H25         9.3918    2.3496   -6.0287 H         1 <0>         0.1114
     51 H26         7.8485    2.8721   -6.7476 H         1 <0>         0.0574
     52 H27         7.3374    1.5078   -4.8035 H         1 <0>         0.0943
     53 H28         8.4266    0.2154   -5.3700 H         1 <0>         0.0793
     54 H29         1.8542   -1.1027   -3.0105 H         1 <0>         0.4284
@<TRIPOS>BOND
     1    1    2 1
     2    1   27 1
     3    1   28 1
     4    1   29 1
     5    2    6 2
     6    2    3 1
     7    3    4 2
     8    3   10 1
     9    4    5 1
    10    4    8 1
    11    5    6 1
    12    5    7 1
    13    7   30 1
    14    7   31 1
    15    7   32 1
    16    8    9 1
    17    9   33 1
    18    9   34 1
    19    9   35 1
    20   10   11 1
    21   10   36 1
    22   10   37 1
    23   11   12 1
    24   11   38 1
    25   11   54 1
    26   12   13 1
    27   12   14 1
    28   12   15 1
    29   14   39 1
    30   14   40 1
    31   14   41 1
    32   15   20 ar
    33   15   16 ar
    34   16   17 ar
    35   16   42 1
    36   17   18 ar
    37   17   43 1
    38   18   19 ar
    39   18   21 1
    40   19   20 ar
    41   19   44 1
    42   20   45 1
    43   21   26 1
    44   21   22 1
    45   22   23 1
    46   22   46 1
    47   22   47 1
    48   23   24 1
    49   23   48 1
    50   23   49 1
    51   24   25 1
    52   25   26 1
    53   25   50 1
    54   25   51 1
    55   26   52 1
    56   26   53 1
@<TRIPOS>MOLECULE
ZINC67165115
   58    59     0     0     0
SMALL
USER_CHARGES

@<TRIPOS>ATOM
      1 C1         -0.0187    1.5258    0.0104 C.3       1 <0>        -0.1857
      2 C2          0.0021   -0.0041    0.0020 C.3       1 <0>         0.1339
      3 C3          0.7421   -0.5109    1.2415 C.3       1 <0>        -0.1851
      4 C4         -1.4333   -0.5336    0.0129 C.3       1 <0>        -0.1418
      5 O1          0.6709   -0.4649   -1.1737 O.3       1 <0>        -0.3542
      6 C5          1.9522   -0.0848   -1.3367 C.2       1 <0>         0.6527
      7 O2          2.4879    0.6189   -0.5034 O.2       1 <0>        -0.5650
      8 N1          2.6407   -0.4850   -2.4240 N.am      1 <0>        -0.6015
      9 C6          1.9949   -1.3334   -3.4286 C.3       1 <0>         0.0809
     10 C7          4.0349   -0.0714   -2.6014 C.3       1 <0>         0.1316
     11 C8          4.9595   -1.1033   -1.9523 C.3       1 <0>        -0.1250
     12 C9          6.4155   -0.6714   -2.1375 C.3       1 <0>        -0.1374
     13 C10         7.3262   -1.6878   -1.4982 C.2       1 <0>         0.5208
     14 O3          6.8568   -2.6617   -0.9486 O.2       1 <0>        -0.5130
     15 N2          8.6622   -1.5145   -1.5373 N.am      1 <0>        -0.7412
     16 C11         9.5475   -2.5025   -0.9158 C.3       1 <0>         0.1294
     17 H1          9.1295   -3.5043   -1.0153 H         1 <0>         0.1370
     18 C12         9.7826   -2.1579    0.5774 C.3       1 <0>        -0.1587
     19 C13        11.3010   -1.8527    0.6823 C.3       1 <0>        -0.0044
     20 N3         11.6653   -1.4528   -0.6861 N.4       1 <0>        -0.3954
     21 C14        10.9446   -2.4394   -1.5407 C.3       1 <0>         0.0275
     22 H2         11.4277   -3.4147   -1.4809 H         1 <0>         0.1546
     23 C15        10.9672   -1.9183   -2.9699 C.3       1 <0>        -0.1369
     24 C16        12.4355   -1.8789   -3.4229 C.3       1 <0>        -0.1381
     25 C17        13.2747   -1.0489   -2.4521 C.3       1 <0>        -0.1478
     26 C18        13.0849   -1.5377   -1.0018 C.3       1 <0>        -0.0033
     27 H3          1.0039    1.9031    0.0027 H         1 <0>         0.0857
     28 H4         -0.5459    1.8868   -0.8726 H         1 <0>         0.0600
     29 H5         -0.5289    1.8773    0.9072 H         1 <0>         0.0718
     30 H6          0.2319   -0.1594    2.1383 H         1 <0>         0.0717
     31 H7          0.7568   -1.6008    1.2356 H         1 <0>         0.0590
     32 H8          1.7647   -0.1336    1.2338 H         1 <0>         0.0852
     33 H9         -1.9605   -0.1726   -0.8702 H         1 <0>         0.0677
     34 H10        -1.4185   -1.6235    0.0069 H         1 <0>         0.0670
     35 H11        -1.9435   -0.1821    0.9097 H         1 <0>         0.0825
     36 H12         1.5219   -0.7062   -4.1842 H         1 <0>         0.0606
     37 H13         2.7427   -1.9702   -3.9014 H         1 <0>         0.0734
     38 H14         1.2397   -1.9552   -2.9479 H         1 <0>         0.0800
     39 H15         4.2602   -0.0001   -3.6654 H         1 <0>         0.0855
     40 H16         4.1882    0.9002   -2.1316 H         1 <0>         0.0894
     41 H17         4.7342   -1.1746   -0.8882 H         1 <0>         0.0782
     42 H18         4.8061   -2.0749   -2.4221 H         1 <0>         0.0752
     43 H19         6.6408   -0.6001   -3.2016 H         1 <0>         0.1015
     44 H20         6.5688    0.3002   -1.6678 H         1 <0>         0.1019
     45 H21         9.0375   -0.7355   -1.9769 H         1 <0>         0.4012
     46 H22         9.1993   -1.2818    0.8607 H         1 <0>         0.1051
     47 H23         9.5224   -3.0079    1.2082 H         1 <0>         0.1205
     48 H24        11.4810   -1.0362    1.3817 H         1 <0>         0.1369
     49 H25        11.8521   -2.7443    0.9814 H         1 <0>         0.1363
     50 H26        10.3979   -2.5861   -3.6166 H         1 <0>         0.1175
     51 H27        10.5416   -0.9155   -3.0052 H         1 <0>         0.0871
     52 H28        12.8280   -2.8951   -3.4593 H         1 <0>         0.0844
     53 H29        12.4932   -1.4361   -4.4173 H         1 <0>         0.0974
     54 H30        14.3267   -1.1328   -2.7250 H         1 <0>         0.1138
     55 H31        12.9702   -0.0043   -2.5172 H         1 <0>         0.0866
     56 H32        13.6537   -0.9086   -0.3171 H         1 <0>         0.1318
     57 H33        13.4202   -2.5715   -0.9193 H         1 <0>         0.1300
     58 H34        11.3276   -0.5202   -0.8718 H         1 <0>         0.4216
@<TRIPOS>BOND
     1    1    2 1
     2    1   27 1
     3    1   28 1
     4    1   29 1
     5    2    3 1
     6    2    4 1
     7    2    5 1
     8    3   30 1
     9    3   31 1
    10    3   32 1
    11    4   33 1
    12    4   34 1
    13    4   35 1
    14    5    6 1
    15    6    7 2
    16    6    8 am
    17    8    9 1
    18    8   10 1
    19    9   36 1
    20    9   37 1
    21    9   38 1
    22   10   11 1
    23   10   39 1
    24   10   40 1
    25   11   12 1
    26   11   41 1
    27   11   42 1
    28   12   13 1
    29   12   43 1
    30   12   44 1
    31   13   14 2
    32   13   15 am
    33   15   16 1
    34   15   45 1
    35   16   17 1
    36   16   21 1
    37   16   18 1
    38   18   19 1
    39   18   46 1
    40   18   47 1
    41   19   20 1
    42   19   48 1
    43   19   49 1
    44   20   26 1
    45   20   21 1
    46   20   58 1
    47   21   22 1
    48   21   23 1
    49   23   24 1
    50   23   50 1
    51   23   51 1
    52   24   25 1
    53   24   52 1
    54   24   53 1
    55   25   26 1
    56   25   54 1
    57   25   55 1
    58   26   56 1
    59   26   57 1
@<TRIPOS>MOLECULE
ZINC13940253
   33    34     0     0     0
SMALL
USER_CHARGES
(5Z)-5-[(2-bromo-5-ethoxy-4-methoxy-phenyl)methylene]imidazolidine-2,4-dione
@<TRIPOS>ATOM
      1 C1         -1.8111    8.2805   -0.3405 C.3       1 <0>        -0.1526
      2 C2         -1.8492    6.7524   -0.2739 C.3       1 <0>         0.0485
      3 O1         -0.5345    6.2335   -0.4846 O.3       1 <0>        -0.2952
      4 C3         -0.3926    4.8812   -0.4565 C.ar      1 <0>         0.1279
      5 C4         -1.4920    4.0768   -0.2322 C.ar      1 <0>        -0.1755
      6 C5         -1.3433    2.6845   -0.2087 C.ar      1 <0>        -0.0387
      7 C6         -0.0774    2.1165   -0.4035 C.ar      1 <0>        -0.0666
      8 C7          1.0140    2.9284   -0.6272 C.ar      1 <0>        -0.1435
      9 C8          0.8632    4.3082   -0.6548 C.ar      1 <0>         0.1226
     10 O2          1.9427    5.1028   -0.8752 O.3       1 <0>        -0.2956
     11 C9          3.1993    4.4509   -1.0701 C.3       1 <0>         0.0201
     12 Br1         0.1324    0.2376   -0.3673 Br        1 <0>        -0.0252
     13 C10        -2.5091    1.8231    0.0243 C.2       1 <0>        -0.0330
     14 C11        -3.5789    2.2998    0.7100 C.2       1 <0>         0.0271
     15 C12        -4.8814    1.6446    0.9014 C.2       1 <0>         0.5647
     16 O3         -5.2222    0.5569    0.4745 O.2       1 <0>        -0.4528
     17 N1         -5.6211    2.4897    1.6476 N.am      1 <0>        -0.6741
     18 C13        -4.9109    3.5941    1.9238 C.2       1 <0>         0.7040
     19 O4         -5.3244    4.5333    2.5764 O.2       1 <0>        -0.5199
     20 N2         -3.6817    3.5254    1.3829 N.am      1 <0>        -0.6673
     21 H1         -1.1422    8.6613    0.4313 H         1 <0>         0.0697
     22 H2         -1.4501    8.5926   -1.3205 H         1 <0>         0.0695
     23 H3         -2.8140    8.6763   -0.1797 H         1 <0>         0.0825
     24 H4         -2.5181    6.3716   -1.0456 H         1 <0>         0.0655
     25 H5         -2.2102    6.4403    0.7061 H         1 <0>         0.0614
     26 H6         -2.4649    4.5200   -0.0789 H         1 <0>         0.1468
     27 H7          1.9889    2.4900   -0.7810 H         1 <0>         0.1530
     28 H8          3.1371    3.7940   -1.9377 H         1 <0>         0.0603
     29 H9          3.9749    5.1987   -1.2354 H         1 <0>         0.1076
     30 H10         3.4444    3.8626   -0.1858 H         1 <0>         0.0602
     31 H11        -2.5154    0.8100   -0.3500 H         1 <0>         0.1686
     32 H12        -6.5321    2.3257    1.9376 H         1 <0>         0.4420
     33 H13        -2.9901    4.2026    1.4467 H         1 <0>         0.4379
@<TRIPOS>BOND
     1    1    2 1
     2    1   21 1
     3    1   22 1
     4    1   23 1
     5    2    3 1
     6    2   24 1
     7    2   25 1
     8    3    4 1
     9    4    9 ar
    10    4    5 ar
    11    5    6 ar
    12    5   26 1
    13    6    7 ar
    14    6   13 1
    15    7    8 ar
    16    7   12 1
    17    8    9 ar
    18    8   27 1
    19    9   10 1
    20   10   11 1
    21   11   28 1
    22   11   29 1
    23   11   30 1
    24   13   14 2
    25   13   31 1
    26   14   20 1
    27   14   15 1
    28   15   16 2
    29   15   17 am
    30   17   18 am
    31   17   32 1
    32   18   19 2
    33   18   20 am
    34   20   33 1
@<TRIPOS>MOLECULE
ZINC40314934
   32    33     0     0     0
SMALL
USER_CHARGES

@<TRIPOS>ATOM
      1 C1         -0.0167    1.3773    0.0096 C.ar      1 <0>        -0.0662
      2 C2          1.1764    2.0869    0.0020 C.ar      1 <0>         0.1839
      3 C3          2.3880    1.4044   -0.0132 C.ar      1 <0>         0.0860
      4 C4          2.4002    0.0217   -0.0207 C.ar      1 <0>        -0.1084
      5 C5          1.2084   -0.6816   -0.0136 C.ar      1 <0>         0.0066
      6 C6          0.0021   -0.0041    0.0020 C.ar      1 <0>        -0.6360
      7 S1         -1.5125   -0.9044    0.0116 S.o2      1 <0>         2.6886
      8 O1         -1.3940   -1.8875    1.0308 O.2       1 <0>        -0.9259
      9 O2         -2.5574    0.0584   -0.0003 O.2       1 <0>        -0.9398
     10 N1         -1.6054   -1.7216   -1.4257 N.pl3     1 <0>        -1.0010
     11 C7         -2.2349   -1.0829   -2.5826 C.3       1 <0>         0.1237
     12 C8         -1.1872   -0.8646   -3.6791 C.3       1 <0>        -0.6303
     13 S2         -0.4541   -2.4685   -4.1177 S.o2      1 <0>         2.4180
     14 O3         -1.4879   -3.3258   -4.5819 O.2       1 <0>        -0.9286
     15 O4          0.6775   -2.2367   -4.9453 O.2       1 <0>        -0.9348
     16 C9          0.1213   -3.0781   -2.5053 C.3       1 <0>        -0.6422
     17 C10        -1.0519   -3.0729   -1.5278 C.3       1 <0>         0.1190
     18 Cl1         1.2269   -2.4175   -0.0243 Cl        1 <0>        -0.0280
     19 F1          3.5513    2.0913   -0.0211 F         1 <0>        -0.1230
     20 N2          1.1600    3.4859    0.0092 N.pl3     1 <0>        -0.8620
     21 H1         -0.9589    1.9048    0.0259 H         1 <0>         0.1638
     22 H2          3.3404   -0.5097   -0.0326 H         1 <0>         0.1598
     23 H3         -3.0307   -1.7235   -2.9629 H         1 <0>         0.1110
     24 H4         -2.6537   -0.1220   -2.2838 H         1 <0>         0.1226
     25 H5         -1.6630   -0.4282   -4.5573 H         1 <0>         0.1532
     26 H6         -0.4089   -0.1953   -3.3126 H         1 <0>         0.1368
     27 H7          0.5035   -4.0932   -2.6138 H         1 <0>         0.1553
     28 H8          0.9104   -2.4270   -2.1291 H         1 <0>         0.1437
     29 H9         -0.7058   -3.3987   -0.5469 H         1 <0>         0.1232
     30 H10        -1.8229   -3.7551   -1.8859 H         1 <0>         0.1108
     31 H11         0.3143    3.9610    0.0195 H         1 <0>         0.4108
     32 H12         1.9942    3.9808    0.0039 H         1 <0>         0.4092
@<TRIPOS>BOND
     1    1    6 ar
     2    1    2 ar
     3    1   21 1
     4    2    3 ar
     5    2   20 1
     6    3    4 ar
     7    3   19 1
     8    4    5 ar
     9    4   22 1
    10    5    6 ar
    11    5   18 1
    12    6    7 1
    13    7    8 2
    14    7    9 2
    15    7   10 1
    16   10   17 1
    17   10   11 1
    18   11   12 1
    19   11   23 1
    20   11   24 1
    21   12   13 1
    22   12   25 1
    23   12   26 1
    24   13   14 2
    25   13   15 2
    26   13   16 1
    27   16   17 1
    28   16   27 1
    29   16   28 1
    30   17   29 1
    31   17   30 1
    32   20   31 1
    33   20   32 1
@<TRIPOS>MOLECULE
ZINC43741097
   50    53     0     0     0
SMALL
USER_CHARGES

@<TRIPOS>ATOM
      1 C1         -0.0187    1.5258    0.0104 C.3       1 <0>        -0.1450
      2 C2          0.0021   -0.0041    0.0020 C.3       1 <0>        -0.0496
      3 C3          0.7252   -0.4918   -1.2512 C.3       1 <0>        -0.1122
      4 C4          2.1173    0.1409   -1.3180 C.3       1 <0>        -0.1210
      5 C5          2.9467   -0.3124   -0.1129 C.3       1 <0>        -0.0874
      6 C6          2.1760   -0.0111    1.1535 C.2       1 <0>        -0.1100
      7 C7          2.7257    0.6564    2.1375 C.2       1 <0>        -0.1949
      8 C8          0.7449   -0.5076    1.2465 C.3       1 <0>        -0.0407
      9 H1          0.2612   -0.1482    2.1547 H         1 <0>         0.0843
     10 C9          0.7792   -2.0349    1.2075 C.3       1 <0>        -0.1105
     11 C10        -0.6323   -2.6219    1.2322 C.3       1 <0>        -0.1088
     12 H2         -1.1030   -2.5467    2.2125 H         1 <0>         0.1168
     13 C11        -1.4908   -2.0149    0.1040 C.3       1 <0>         0.0883
     14 H3         -2.5289   -2.3131    0.2510 H         1 <0>         0.0804
     15 C12        -1.4280   -0.5266    0.0233 C.3       1 <0>        -0.1068
     16 O1         -0.9902   -2.6459   -1.0798 O.3       1 <0>        -0.3258
     17 C13        -0.7851   -3.9498   -0.7857 C.2       1 <0>         0.4742
     18 O2         -0.8168   -4.8614   -1.5781 O.2       1 <0>        -0.4428
     19 C14        -0.5051   -4.0905    0.7233 C.3       1 <0>        -0.1457
     20 H4          0.4993   -4.4732    0.9048 H         1 <0>         0.1306
     21 C15        -1.5515   -4.9840    1.3923 C.3       1 <0>         0.0662
     22 N1         -1.3343   -6.3795    0.9882 N.3       1 <0>        -0.6598
     23 C16        -2.3230   -7.2685    1.6128 C.3       1 <0>         0.0293
     24 H5         -2.5818   -6.9147    2.6107 H         1 <0>         0.1303
     25 C17        -1.7964   -8.7210    1.6664 C.3       1 <0>         0.0362
     26 O3         -2.3243   -9.2903    0.4531 O.3       1 <0>        -0.1371
     27 N2         -3.5026   -8.5825    0.1190 N.am      1 <0>        -0.5865
     28 C18        -3.5628   -7.3859    0.7462 C.2       1 <0>         0.4818
     29 O4         -4.4430   -6.5586    0.6380 O.2       1 <0>        -0.5024
     30 H6          1.0039    1.9031    0.0027 H         1 <0>         0.0654
     31 H7         -0.5459    1.8868   -0.8726 H         1 <0>         0.0557
     32 H8         -0.5289    1.8773    0.9072 H         1 <0>         0.0539
     33 H9          0.8208   -1.5770   -1.2161 H         1 <0>         0.0758
     34 H10         0.1538   -0.2063   -2.1345 H         1 <0>         0.0637
     35 H11         2.6134   -0.1698   -2.2375 H         1 <0>         0.0628
     36 H12         2.0234    1.2268   -1.3061 H         1 <0>         0.0672
     37 H13         3.1331   -1.3843   -0.1805 H         1 <0>         0.0707
     38 H14         3.8951    0.2247   -0.0996 H         1 <0>         0.0674
     39 H15         3.7456    1.0015    2.0525 H         1 <0>         0.0972
     40 H16         2.1592    0.8617    3.0338 H         1 <0>         0.0972
     41 H17         1.2842   -2.3575    0.2970 H         1 <0>         0.0748
     42 H18         1.3337   -2.4018    2.0712 H         1 <0>         0.0743
     43 H19        -1.9421   -0.1148    0.8917 H         1 <0>         0.0895
     44 H20        -1.9398   -0.1933   -0.8795 H         1 <0>         0.0823
     45 H21        -1.4612   -4.9011    2.4754 H         1 <0>         0.0979
     46 H22        -2.5486   -4.6680    1.0856 H         1 <0>         0.0482
     47 H23        -1.3490   -6.4715   -0.0165 H         1 <0>         0.3611
     48 H24        -0.7065   -8.7380    1.6595 H         1 <0>         0.1318
     49 H25        -2.1871   -9.2423    2.5403 H         1 <0>         0.0912
     50 H26        -4.1847   -8.9146   -0.4854 H         1 <0>         0.4407
@<TRIPOS>BOND
     1    1    2 1
     2    1   30 1
     3    1   31 1
     4    1   32 1
     5    2    8 1
     6    2   15 1
     7    2    3 1
     8    3    4 1
     9    3   33 1
    10    3   34 1
    11    4    5 1
    12    4   35 1
    13    4   36 1
    14    5    6 1
    15    5   37 1
    16    5   38 1
    17    6    7 2
    18    6    8 1
    19    7   39 1
    20    7   40 1
    21    8    9 1
    22    8   10 1
    23   10   11 1
    24   10   41 1
    25   10   42 1
    26   11   12 1
    27   11   19 1
    28   11   13 1
    29   13   14 1
    30   13   15 1
    31   13   16 1
    32   15   43 1
    33   15   44 1
    34   16   17 1
    35   17   18 2
    36   17   19 1
    37   19   20 1
    38   19   21 1
    39   21   22 1
    40   21   45 1
    41   21   46 1
    42   22   23 1
    43   22   47 1
    44   23   24 1
    45   23   28 1
    46   23   25 1
    47   25   26 1
    48   25   48 1
    49   25   49 1
    50   26   27 1
    51   27   28 am
    52   27   50 1
    53   28   29 2
@<TRIPOS>MOLECULE
ZINC49286534
   36    36     0     0     0
SMALL
USER_CHARGES

@<TRIPOS>ATOM
      1 C1         -0.0225    1.8097    0.0120 C.3       1 <0>        -0.6739
      2 S1          0.0021   -0.0041    0.0020 S.o2      1 <0>         2.6099
      3 O1          0.8352   -0.4880    1.0465 O.2       1 <0>        -0.9531
      4 O2         -1.3147   -0.5105   -0.1678 O.2       1 <0>        -0.9544
      5 N1          0.7947   -0.4113   -1.3938 N.pl3     1 <0>        -1.0022
      6 C2          0.0529   -0.6008   -2.6478 C.3       1 <0>         0.1219
      7 C3          0.4032   -1.9761   -3.2248 C.3       1 <0>        -0.1396
      8 C4          1.9223   -2.0924   -3.3693 C.3       1 <0>         0.1657
      9 C5          2.5787   -1.9647   -1.9927 C.3       1 <0>        -0.1423
     10 C6          2.2538   -0.5838   -1.4030 C.3       1 <0>         0.1202
     11 N2          2.2589   -3.3938   -3.9517 N.am      1 <0>        -0.7420
     12 C7          3.4135   -3.5506   -4.6292 C.2       1 <0>         0.7076
     13 O3          4.1756   -2.6119   -4.7570 O.2       1 <0>        -0.5873
     14 N3          3.7232   -4.7479   -5.1649 N.am      1 <0>        -0.7441
     15 C8          4.9781   -4.9183   -5.9013 C.3       1 <0>         0.1846
     16 C9          5.0827   -6.3387   -6.3937 C.2       1 <0>        -0.1545
     17 C10         5.0768   -6.5885   -7.6809 C.2       1 <0>        -0.1092
     18 Br1         5.2226   -7.7608   -5.1552 Br        1 <0>        -0.0559
     19 H1          1.0001    2.1870    0.0043 H         1 <0>         0.1279
     20 H2         -0.5497    2.1708   -0.8711 H         1 <0>         0.1275
     21 H3         -0.5327    2.1613    0.9088 H         1 <0>         0.1283
     22 H4         -1.0178   -0.5493   -2.4504 H         1 <0>         0.1006
     23 H5          0.3332    0.1760   -3.3592 H         1 <0>         0.0744
     24 H6          0.0409   -2.7550   -2.5539 H         1 <0>         0.0765
     25 H7         -0.0651   -2.0905   -4.2024 H         1 <0>         0.0839
     26 H8          2.2870   -1.2980   -4.0206 H         1 <0>         0.0924
     27 H9          2.1959   -2.7437   -1.3335 H         1 <0>         0.0715
     28 H10         3.6588   -2.0709   -2.0934 H         1 <0>         0.0826
     29 H11         2.7099    0.1944   -2.0150 H         1 <0>         0.0744
     30 H12         2.6356   -0.5210   -0.3841 H         1 <0>         0.0985
     31 H13         1.6509   -4.1427   -3.8497 H         1 <0>         0.3969
     32 H14         3.1151   -5.4967   -5.0630 H         1 <0>         0.3986
     33 H15         4.9958   -4.2367   -6.7518 H         1 <0>         0.0859
     34 H16         5.8185   -4.6992   -5.2427 H         1 <0>         0.0833
     35 H17         4.9969   -5.7763   -8.3883 H         1 <0>         0.1263
     36 H18         5.1518   -7.6065   -8.0338 H         1 <0>         0.1191
@<TRIPOS>BOND
     1    1    2 1
     2    1   19 1
     3    1   20 1
     4    1   21 1
     5    2    3 2
     6    2    4 2
     7    2    5 1
     8    5   10 1
     9    5    6 1
    10    6    7 1
    11    6   22 1
    12    6   23 1
    13    7    8 1
    14    7   24 1
    15    7   25 1
    16    8    9 1
    17    8   11 1
    18    8   26 1
    19    9   10 1
    20    9   27 1
    21    9   28 1
    22   10   29 1
    23   10   30 1
    24   11   12 am
    25   11   31 1
    26   12   13 2
    27   12   14 am
    28   14   15 1
    29   14   32 1
    30   15   16 1
    31   15   33 1
    32   15   34 1
    33   16   17 2
    34   16   18 1
    35   17   35 1
    36   17   36 1
@<TRIPOS>MOLECULE
ZINC61691827
   33    34     0     0     0
SMALL
USER_CHARGES

@<TRIPOS>ATOM
      1 C1         -0.5411   -0.0748    2.4655 C.3       1 <0>         0.0565
      2 N1         -1.0913   -0.5195    1.1826 N.pl3     1 <0>        -0.4207
      3 C2         -1.6211   -1.7516    0.9093 C.2       1 <0>         0.1304
      4 C3         -2.0062   -1.7327   -0.3810 C.2       1 <0>        -0.4750
      5 N2         -1.7194   -0.5220   -0.8819 N.pl3     1 <0>        -0.4211
      6 C4         -1.1758    0.2117    0.0503 C.cat     1 <0>         0.2959
      7 S1         -2.7555   -3.0650   -1.2575 S.o2      1 <0>         2.5865
      8 O1         -3.3707   -3.8970   -0.2835 O.2       1 <0>        -0.9879
      9 O2         -3.4817   -2.4860   -2.3331 O.2       1 <0>        -0.9972
     10 N3         -1.5337   -3.9537   -1.9356 N.2       1 <0>        -1.0588
     11 C5         -1.8270   -5.1352   -2.6223 C.ar      1 <0>         0.2756
     12 C6         -3.1460   -5.4916   -2.8568 C.ar      1 <0>        -0.2220
     13 C7         -3.4334   -6.6713   -3.5423 C.ar      1 <0>         0.0587
     14 C8         -2.3916   -7.4862   -3.9882 C.ar      1 <0>        -0.1642
     15 C9         -1.0815   -7.1238   -3.7503 C.ar      1 <0>        -0.0690
     16 C10        -0.7955   -5.9507   -3.0754 C.ar      1 <0>        -0.0709
     17 Cl1         0.8556   -5.4988   -2.7867 Cl        1 <0>        -0.0791
     18 C11        -4.7936   -7.0459   -3.7878 C.1       1 <0>        -0.0933
     19 C12        -5.9087   -7.3531   -3.9890 C.1       1 <0>        -0.1860
     20 C13        -7.3068   -7.7382   -4.2413 C.3       1 <0>         0.1972
     21 O3         -7.3386   -8.9760   -4.9546 O.3       1 <0>        -0.5672
     22 H1         -1.3348    0.3679    3.0673 H         1 <0>         0.1093
     23 H2         -0.1172   -0.9284    2.9944 H         1 <0>         0.1184
     24 H3          0.2379    0.6669    2.2892 H         1 <0>         0.1151
     25 H4         -1.7123   -2.5799    1.5963 H         1 <0>         0.2357
     26 H5         -0.8457    1.2335   -0.0652 H         1 <0>         0.2667
     27 H6         -3.9484   -4.8577   -2.5094 H         1 <0>         0.1101
     28 H7         -2.6109   -8.4008   -4.5191 H         1 <0>         0.1251
     29 H8         -0.2768   -7.7558   -4.0961 H         1 <0>         0.1301
     30 H9         -7.8292   -7.8527   -3.2915 H         1 <0>         0.0726
     31 H10        -7.7955   -6.9647   -4.8338 H         1 <0>         0.0725
     32 H11        -8.2304   -9.2913   -5.1557 H         1 <0>         0.3865
     33 H12        -1.8922   -0.2357   -1.7925 H         1 <0>         0.4695
@<TRIPOS>BOND
     1    1    2 1
     2    1   22 1
     3    1   23 1
     4    1   24 1
     5    2    6 1
     6    2    3 1
     7    3    4 2
     8    3   25 1
     9    4    5 1
    10    4    7 1
    11    5    6 2
    12    5   33 1
    13    6   26 1
    14    7    8 2
    15    7    9 2
    16    7   10 1
    17   10   11 1
    18   11   16 ar
    19   11   12 ar
    20   12   13 ar
    21   12   27 1
    22   13   14 ar
    23   13   18 1
    24   14   15 ar
    25   14   28 1
    26   15   16 ar
    27   15   29 1
    28   16   17 1
    29   18   19 3
    30   19   20 1
    31   20   21 1
    32   20   30 1
    33   20   31 1
    34   21   32 1
@<TRIPOS>MOLECULE
ZINC19473720
   39    40     0     0     0
SMALL
USER_CHARGES
(3S,5S)-3,5-dimethyl-1-(4-piperidyl)piperidine
@<TRIPOS>ATOM
      1 C1          1.1822    7.4350    0.7453 C.3       1 <0>        -0.1710
      2 C2         -0.2712    6.9653    0.6571 C.3       1 <0>        -0.1118
      3 H1         -0.7914    7.2140    1.5939 H         1 <0>         0.1186
      4 C3         -0.9637    7.6631   -0.5168 C.3       1 <0>        -0.1304
      5 C4         -0.2661    7.2650   -1.8204 C.3       1 <0>        -0.1107
      6 H2          0.7786    7.6089   -1.7998 H         1 <0>         0.0954
      7 C5         -0.3022    5.7422   -1.9683 C.3       1 <0>        -0.0046
      8 N1          0.3732    5.1216   -0.8215 N.4       1 <0>        -0.3972
      9 C6         -0.3072    5.4512    0.4374 C.3       1 <0>        -0.0094
     10 C7          0.4797    3.6671   -0.9973 C.3       1 <0>         0.0318
     11 C8          1.2960    3.0711    0.1529 C.3       1 <0>        -0.1399
     12 C9          1.3520    1.5497   -0.0025 C.3       1 <0>         0.0489
     13 N2         -0.0116    1.0048    0.0076 N.3       1 <0>        -0.6772
     14 C10        -0.8002    1.5266   -1.1159 C.3       1 <0>         0.0470
     15 C11        -0.9205    3.0474   -0.9937 C.3       1 <0>        -0.1386
     16 C12        -0.9881    7.9105   -3.0048 C.3       1 <0>        -0.1537
     17 H3          1.2069    8.5233    0.9032 H         1 <0>         0.0858
     18 H4          1.7047    7.1884   -0.1907 H         1 <0>         0.0508
     19 H5          1.6800    6.9310    1.5869 H         1 <0>         0.0739
     20 H6         -2.0195    7.3568   -0.5543 H         1 <0>         0.0821
     21 H7         -0.9027    8.7532   -0.3831 H         1 <0>         0.0949
     22 H8         -1.3476    5.4021   -2.0055 H         1 <0>         0.1266
     23 H9          0.2112    5.4517   -2.8968 H         1 <0>         0.1282
     24 H10         0.2025    4.9474    1.2719 H         1 <0>         0.1325
     25 H11        -1.3526    5.1126    0.3882 H         1 <0>         0.1278
     26 H12         0.9803    3.4940   -1.9614 H         1 <0>         0.1303
     27 H13         2.3163    3.4816    0.1296 H         1 <0>         0.0912
     28 H14         0.8199    3.3263    1.1111 H         1 <0>         0.0966
     29 H15         1.8406    1.2962   -0.9549 H         1 <0>         0.0440
     30 H16         1.9255    1.1169    0.8304 H         1 <0>         0.0989
     31 H17         0.0310   -0.0914   -0.0728 H         1 <0>         0.3654
     32 H18        -0.3011    1.2737   -2.0629 H         1 <0>         0.0436
     33 H19        -1.8041    1.0773   -1.0992 H         1 <0>         0.0978
     34 H20        -1.4318    3.3022   -0.0537 H         1 <0>         0.0951
     35 H21        -1.4978    3.4408   -1.8434 H         1 <0>         0.0886
     36 H22        -0.4861    7.6238   -3.9407 H         1 <0>         0.0682
     37 H23        -0.9645    9.0049   -2.8964 H         1 <0>         0.0781
     38 H24        -2.0328    7.5669   -3.0289 H         1 <0>         0.0670
     39 H25         1.3921    5.5329   -0.7695 H         1 <0>         0.4357
@<TRIPOS>BOND
     1    1    2 1
     2    1   17 1
     3    1   18 1
     4    1   19 1
     5    2    3 1
     6    2    9 1
     7    2    4 1
     8    4    5 1
     9    4   20 1
    10    4   21 1
    11    5    6 1
    12    5    7 1
    13    5   16 1
    14    7    8 1
    15    7   22 1
    16    7   23 1
    17    8    9 1
    18    8   10 1
    19    8   39 1
    20    9   24 1
    21    9   25 1
    22   10   15 1
    23   10   11 1
    24   10   26 1
    25   11   12 1
    26   11   27 1
    27   11   28 1
    28   12   13 1
    29   12   29 1
    30   12   30 1
    31   13   14 1
    32   13   31 1
    33   14   15 1
    34   14   32 1
    35   14   33 1
    36   15   34 1
    37   15   35 1
    38   16   36 1
    39   16   37 1
    40   16   38 1
@<TRIPOS>MOLECULE
ZINC37483271
   39    40     0     0     0
SMALL
USER_CHARGES

@<TRIPOS>ATOM
      1 C1         -0.0438    1.4892    0.1115 C.3       1 <0>        -0.1524
      2 C2         -0.0386   -0.0405    0.0795 C.3       1 <0>        -0.0874
      3 H1         -1.0589   -0.4095    0.1839 H         1 <0>         0.0732
      4 C3          0.5439   -0.5208   -1.2512 C.3       1 <0>        -0.1194
      5 C4          0.5491   -2.0505   -1.2831 C.3       1 <0>        -0.1177
      6 C5          1.4039   -2.5818   -0.1308 C.3       1 <0>        -0.1527
      7 C6          0.8214   -2.1014    1.1999 C.3       1 <0>         0.0905
      8 H2         -0.1989   -2.4705    1.3042 H         1 <0>         0.0952
      9 C7          0.8162   -0.5718    1.2319 C.3       1 <0>        -0.0746
     10 H3          1.8365   -0.2027    1.1276 H         1 <0>         0.0692
     11 C8          0.2337   -0.0914    2.5626 C.3       1 <0>        -0.1437
     12 N1          1.6421   -2.6115    2.3063 N.3       1 <0>        -0.5291
     13 C9          1.4602   -4.0605    2.4726 C.3       1 <0>         0.0205
     14 C10         2.2839   -4.5409    3.6694 C.3       1 <0>        -0.0022
     15 N2          3.7018   -4.2308    3.4443 N.4       1 <0>        -0.5079
     16 C11         3.8710   -2.7785    3.3047 C.3       1 <0>        -0.0031
     17 C12         3.0605   -2.2833    2.1048 C.3       1 <0>         0.0147
     18 H4          0.9765    1.8582    0.0072 H         1 <0>         0.0545
     19 H5         -0.6528    1.8677   -0.7095 H         1 <0>         0.0590
     20 H6         -0.4588    1.8314    1.0595 H         1 <0>         0.0614
     21 H7         -0.0651   -0.1423   -2.0721 H         1 <0>         0.0694
     22 H8          1.5642   -0.1518   -1.3555 H         1 <0>         0.0624
     23 H9         -0.4712   -2.4195   -1.1788 H         1 <0>         0.0664
     24 H10         0.9641   -2.3927   -2.2312 H         1 <0>         0.0675
     25 H11         1.4076   -3.6715   -0.1536 H         1 <0>         0.0609
     26 H12         2.4242   -2.2127   -0.2351 H         1 <0>         0.0667
     27 H13        -0.7622   -0.5137    2.6968 H         1 <0>         0.0539
     28 H14         0.8786   -0.4151    3.3795 H         1 <0>         0.0598
     29 H15         0.1695    0.9967    2.5595 H         1 <0>         0.0590
     30 H16         0.4061   -4.2771    2.6461 H         1 <0>         0.1224
     31 H17         1.7940   -4.5747    1.5714 H         1 <0>         0.0621
     32 H18         1.9406   -4.0366    4.5727 H         1 <0>         0.1393
     33 H19         2.1615   -5.6178    3.7859 H         1 <0>         0.1374
     34 H20         4.2462   -4.5589    4.2280 H         1 <0>         0.4337
     35 H21         3.5196   -2.2831    4.2098 H         1 <0>         0.1389
     36 H22         4.9253   -2.5486    3.1507 H         1 <0>         0.1371
     37 H23         3.4207   -2.7683    1.1976 H         1 <0>         0.0653
     38 H24         3.1740   -1.2034    2.0100 H         1 <0>         0.1243
     39 H25         4.0163   -4.6884    2.6018 H         1 <0>         0.4255
@<TRIPOS>BOND
     1    1    2 1
     2    1   18 1
     3    1   19 1
     4    1   20 1
     5    2    3 1
     6    2    9 1
     7    2    4 1
     8    4    5 1
     9    4   21 1
    10    4   22 1
    11    5    6 1
    12    5   23 1
    13    5   24 1
    14    6    7 1
    15    6   25 1
    16    6   26 1
    17    7    8 1
    18    7    9 1
    19    7   12 1
    20    9   10 1
    21    9   11 1
    22   11   27 1
    23   11   28 1
    24   11   29 1
    25   12   17 1
    26   12   13 1
    27   13   14 1
    28   13   30 1
    29   13   31 1
    30   14   15 1
    31   14   32 1
    32   14   33 1
    33   15   16 1
    34   15   34 1
    35   15   39 1
    36   16   17 1
    37   16   35 1
    38   16   36 1
    39   17   37 1
    40   17   38 1
@<TRIPOS>MOLECULE
ZINC44257473
   19    20     0     0     0
SMALL
USER_CHARGES

@<TRIPOS>ATOM
      1 C1         -0.0162    1.3408    0.0094 C.2       1 <0>        -0.1234
      2 C2          1.3313    1.7690   -0.0012 C.2       1 <0>        -0.1578
      3 C3          2.0930    0.6591   -0.0144 C.2       1 <0>         0.0084
      4 O1          1.2822   -0.4116   -0.0124 O.3       1 <0>        -0.1654
      5 C4          0.0021   -0.0041    0.0020 C.2       1 <0>        -0.0849
      6 C5         -1.2084   -0.9017    0.0092 C.3       1 <0>         0.1415
      7 H1         -2.1377   -0.3575   -0.1590 H         1 <0>         0.1898
      8 C6         -1.2627   -1.8455    1.2187 C.3       1 <0>        -0.1574
      9 C7         -1.7832   -2.8571    0.1881 C.3       1 <0>         0.0043
     10 N1         -1.0616   -2.0928   -0.8481 N.4       1 <0>        -0.5376
     11 Br1         3.9834    0.6151   -0.0336 Br        1 <0>         0.0890
     12 H2         -0.8921    1.9724    0.0252 H         1 <0>         0.1730
     13 H3          1.6821    2.7905    0.0004 H         1 <0>         0.1759
     14 H4         -0.2864   -2.0944    1.6348 H         1 <0>         0.1271
     15 H5         -1.9951   -1.5611    1.9742 H         1 <0>         0.1392
     16 H6         -1.3948   -3.8650    0.3344 H         1 <0>         0.1440
     17 H7         -2.8662   -2.8355    0.0670 H         1 <0>         0.1591
     18 H8         -1.5647   -2.0240   -1.7200 H         1 <0>         0.4311
     19 H9         -0.1034   -2.3852   -0.9680 H         1 <0>         0.4442
@<TRIPOS>BOND
     1    1    5 2
     2    1    2 1
     3    1   12 1
     4    2    3 2
     5    2   13 1
     6    3    4 1
     7    3   11 1
     8    4    5 1
     9    5    6 1
    10    6    7 1
    11    6   10 1
    12    6    8 1
    13    8    9 1
    14    8   14 1
    15    8   15 1
    16    9   10 1
    17    9   16 1
    18    9   17 1
    19   10   18 1
    20   10   19 1
@<TRIPOS>MOLECULE
ZINC49660590
   42    43     0     0     0
SMALL
USER_CHARGES

@<TRIPOS>ATOM
      1 C1         -0.0450    1.5252    0.0259 C.3       1 <0>        -0.1557
      2 C2         -0.0111   -0.0044    0.0098 C.3       1 <0>        -0.0797
      3 H1          0.5052   -0.3469   -0.8870 H         1 <0>         0.0811
      4 C3         -1.4419   -0.5463    0.0128 C.3       1 <0>        -0.1287
      5 C4         -1.4080   -2.0758   -0.0033 C.3       1 <0>        -0.1162
      6 C5         -0.6680   -2.5827    1.2362 C.3       1 <0>        -0.1443
      7 C6          0.7628   -2.0407    1.2331 C.3       1 <0>         0.0232
      8 H2          1.2791   -2.3833    0.3364 H         1 <0>         0.1365
      9 C7          0.7289   -0.5112    1.2493 C.3       1 <0>        -0.1041
     10 H3          1.7482   -0.1251    1.2471 H         1 <0>         0.0942
     11 C8          0.0041   -0.0304    2.5081 C.3       1 <0>        -0.1759
     12 N1          1.4733   -2.5274    2.4232 N.4       1 <0>        -0.3658
     13 C9          2.8701   -2.0450    2.3760 C.3       1 <0>        -0.0122
     14 C10         3.4396   -2.0695    3.7721 C.3       1 <0>        -0.1825
     15 C11         4.1848   -3.3832    4.0668 C.3       1 <0>         0.0487
     16 N2          3.4710   -4.5654    3.5319 N.3       1 <0>        -0.6923
     17 C12         2.0395   -4.5142    3.7260 C.3       1 <0>         0.0555
     18 C13         1.3859   -3.9226    2.4624 C.3       1 <0>        -0.0811
     19 H4          0.9743    1.9112    0.0237 H         1 <0>         0.0601
     20 H5         -0.5722    1.8863   -0.8571 H         1 <0>         0.0677
     21 H6         -0.5613    1.8677    0.9227 H         1 <0>         0.0633
     22 H7         -1.9582   -0.2038    0.9096 H         1 <0>         0.0738
     23 H8         -1.9691   -0.1852   -0.8702 H         1 <0>         0.0801
     24 H9         -2.4273   -2.4619   -0.0011 H         1 <0>         0.0859
     25 H10        -0.8917   -2.4183   -0.9001 H         1 <0>         0.0742
     26 H11        -1.1843   -2.2401    2.1330 H         1 <0>         0.0893
     27 H12        -0.6438   -3.6723    1.2247 H         1 <0>         0.0893
     28 H13        -1.0152   -0.4165    2.5103 H         1 <0>         0.0795
     29 H14         0.5313   -0.3915    3.3911 H         1 <0>         0.0474
     30 H15        -0.0200    1.0592    2.5196 H         1 <0>         0.0894
     31 H16         3.4596   -2.6951    1.7295 H         1 <0>         0.1277
     32 H17         2.8918   -1.0257    1.9904 H         1 <0>         0.1395
     33 H18         4.1320   -1.2356    3.8872 H         1 <0>         0.1166
     34 H19         2.6264   -1.9547    4.4888 H         1 <0>         0.0825
     35 H20         5.1765   -3.3356    3.6170 H         1 <0>         0.0912
     36 H21         4.2929   -3.4938    5.1458 H         1 <0>         0.0951
     37 H22         3.6991   -4.7167    2.5608 H         1 <0>         0.3517
     38 H23         1.6580   -5.5208    3.8971 H         1 <0>         0.1206
     39 H24         1.8098   -3.8839    4.5851 H         1 <0>         0.0898
     40 H25         0.3352   -4.2116    2.4398 H         1 <0>         0.1411
     41 H26         1.8823   -4.3325    1.5829 H         1 <0>         0.1276
     42 H27         1.0272   -2.1497    3.2457 H         1 <0>         0.4158
@<TRIPOS>BOND
     1    1    2 1
     2    1   19 1
     3    1   20 1
     4    1   21 1
     5    2    3 1
     6    2    9 1
     7    2    4 1
     8    4    5 1
     9    4   22 1
    10    4   23 1
    11    5    6 1
    12    5   24 1
    13    5   25 1
    14    6    7 1
    15    6   26 1
    16    6   27 1
    17    7    8 1
    18    7    9 1
    19    7   12 1
    20    9   10 1
    21    9   11 1
    22   11   28 1
    23   11   29 1
    24   11   30 1
    25   12   18 1
    26   12   13 1
    27   12   42 1
    28   13   14 1
    29   13   31 1
    30   13   32 1
    31   14   15 1
    32   14   33 1
    33   14   34 1
    34   15   16 1
    35   15   35 1
    36   15   36 1
    37   16   17 1
    38   16   37 1
    39   17   18 1
    40   17   38 1
    41   17   39 1
    42   18   40 1
    43   18   41 1
@<TRIPOS>MOLECULE
ZINC62567925
   39    40     0     0     0
SMALL
USER_CHARGES

@<TRIPOS>ATOM
      1 C1         -0.0187    1.5258    0.0104 C.3       1 <0>        -0.1524
      2 C2          0.0021   -0.0041    0.0020 C.3       1 <0>         0.0551
      3 H1          0.5122   -0.3559   -0.8947 H         1 <0>         0.0685
      4 C3         -1.4334   -0.5342    0.0141 C.3       1 <0>        -0.0073
      5 N1         -1.4130   -2.0029    0.0263 N.4       1 <0>        -0.5063
      6 C4         -0.7231   -2.4747    1.2342 C.3       1 <0>         0.0304
      7 H2         -0.7201   -3.5646    1.2485 H         1 <0>         0.1427
      8 C5          0.7183   -1.9607    1.2322 C.3       1 <0>         0.0208
      9 N2          0.7118   -0.4914    1.1932 N.3       1 <0>        -0.5254
     10 C6          2.0791    0.0431    1.2468 C.3       1 <0>         0.0823
     11 C7          2.8861   -0.5013    0.0664 C.3       1 <0>        -0.1531
     12 C8          4.3101    0.0554    0.1222 C.3       1 <0>        -0.1174
     13 C9          4.9734   -0.3709    1.4334 C.3       1 <0>        -0.1243
     14 C10         4.1664    0.1735    2.6138 C.3       1 <0>        -0.1219
     15 C11         2.7423   -0.3833    2.5579 C.3       1 <0>        -0.1114
     16 C12        -1.4498   -1.9503    2.4742 C.3       1 <0>        -0.1749
     17 H3          1.0039    1.9031    0.0027 H         1 <0>         0.0786
     18 H4         -0.5459    1.8868   -0.8726 H         1 <0>         0.0745
     19 H5         -0.5289    1.8773    0.9072 H         1 <0>         0.0773
     20 H6         -1.9475   -0.1706    0.9038 H         1 <0>         0.1423
     21 H7         -1.9570   -0.1855   -0.8761 H         1 <0>         0.1374
     22 H8         -2.3595   -2.3523    0.0217 H         1 <0>         0.4315
     23 H9          1.2260   -2.2982    2.1358 H         1 <0>         0.1256
     24 H10         1.2403   -2.3451    0.3560 H         1 <0>         0.0637
     25 H11         2.0461    1.1313    1.1933 H         1 <0>         0.1013
     26 H12         2.9191   -1.5895    0.1199 H         1 <0>         0.0646
     27 H13         2.4136   -0.1976   -0.8677 H         1 <0>         0.0618
     28 H14         4.8851   -0.3324   -0.7187 H         1 <0>         0.0669
     29 H15         4.2772    1.1436    0.0688 H         1 <0>         0.0665
     30 H16         5.0064   -1.4591    1.4869 H         1 <0>         0.0617
     31 H17         5.9879    0.0257    1.4732 H         1 <0>         0.0690
     32 H18         4.6389   -0.1303    3.5479 H         1 <0>         0.0710
     33 H19         4.1334    1.2616    2.5603 H         1 <0>         0.0668
     34 H20         2.1674    0.0046    3.3988 H         1 <0>         0.0750
     35 H21         2.7753   -1.4715    2.6114 H         1 <0>         0.0623
     36 H22        -2.4764   -2.3166    2.4757 H         1 <0>         0.0756
     37 H23        -0.9379   -2.3004    3.3706 H         1 <0>         0.1031
     38 H24        -1.4529   -0.8604    2.4599 H         1 <0>         0.0926
     39 H25        -0.9268   -2.3391   -0.7915 H         1 <0>         0.4257
@<TRIPOS>BOND
     1    1    2 1
     2    1   17 1
     3    1   18 1
     4    1   19 1
     5    2    3 1
     6    2    9 1
     7    2    4 1
     8    4    5 1
     9    4   20 1
    10    4   21 1
    11    5    6 1
    12    5   22 1
    13    5   39 1
    14    6    7 1
    15    6    8 1
    16    6   16 1
    17    8    9 1
    18    8   23 1
    19    8   24 1
    20    9   10 1
    21   10   15 1
    22   10   11 1
    23   10   25 1
    24   11   12 1
    25   11   26 1
    26   11   27 1
    27   12   13 1
    28   12   28 1
    29   12   29 1
    30   13   14 1
    31   13   30 1
    32   13   31 1
    33   14   15 1
    34   14   32 1
    35   14   33 1
    36   15   34 1
    37   15   35 1
    38   16   36 1
    39   16   37 1
    40   16   38 1
@<TRIPOS>MOLECULE
ZINC00564569
   25    27     0     0     0
SMALL
USER_CHARGES
9-bromo-7-phenyl-6,8-diazabicyclo[4.3.0]nona-2,4,7,9-tetraene
@<TRIPOS>ATOM
      1 C1         -3.4207   -2.5166    0.0181 C.ar      1 <0>        -0.1092
      2 C2         -3.5293   -1.2023    0.4372 C.ar      1 <0>        -0.1136
      3 C3         -2.4216   -0.3805    0.4347 C.ar      1 <0>        -0.0784
      4 C4         -1.1880   -0.8778    0.0079 C.ar      1 <0>        -0.0105
      5 C5         -1.0869   -2.2041   -0.4187 C.ar      1 <0>        -0.1197
      6 C6         -2.2017   -3.0162   -0.4056 C.ar      1 <0>        -0.1133
      7 C7          0.0021   -0.0041    0.0020 C.2       1 <0>         0.2104
      8 N1         -0.0152    1.3145   -0.0559 N.2       1 <0>        -0.4058
      9 C8          1.2285    1.7839   -0.0435 C.2       1 <0>         0.0009
     10 C9          2.0892    0.7017    0.0263 C.2       1 <0>         0.0474
     11 N2          1.2972   -0.4290    0.0547 N.pl3     1 <0>        -0.3514
     12 C10         1.8739   -1.6685    0.1236 C.2       1 <0>         0.0443
     13 C11         3.2148   -1.7987    0.1646 C.2       1 <0>        -0.1237
     14 C12         4.0452   -0.6628    0.1370 C.2       1 <0>        -0.1083
     15 C13         3.4910    0.5773    0.0683 C.2       1 <0>        -0.0747
     16 Br1         1.7324    3.6053   -0.1105 Br        1 <0>         0.0305
     17 H1         -4.2913   -3.1557    0.0221 H         1 <0>         0.1281
     18 H2         -4.4837   -0.8190    0.7666 H         1 <0>         0.1315
     19 H3         -2.5077    0.6450    0.7624 H         1 <0>         0.1354
     20 H4         -0.1371   -2.5940   -0.7538 H         1 <0>         0.1222
     21 H5         -2.1241   -4.0430   -0.7313 H         1 <0>         0.1296
     22 H6          1.2494   -2.5493    0.1455 H         1 <0>         0.1727
     23 H7          3.6558   -2.7831    0.2188 H         1 <0>         0.1561
     24 H8          5.1188   -0.7755    0.1699 H         1 <0>         0.1457
     25 H9          4.1185    1.4560    0.0462 H         1 <0>         0.1539
@<TRIPOS>BOND
     1    1    6 ar
     2    1    2 ar
     3    1   17 1
     4    2    3 ar
     5    2   18 1
     6    3    4 ar
     7    3   19 1
     8    4    5 ar
     9    4    7 1
    10    5    6 ar
    11    5   20 1
    12    6   21 1
    13    7   11 1
    14    7    8 2
    15    8    9 1
    16    9   10 2
    17    9   16 1
    18   10   15 1
    19   10   11 1
    20   11   12 1
    21   12   13 2
    22   12   22 1
    23   13   14 1
    24   13   23 1
    25   14   15 2
    26   14   24 1
    27   15   25 1
@<TRIPOS>MOLECULE
ZINC16989779
   32    32     0     0     0
SMALL
USER_CHARGES
N'-(3,4-dichlorophenyl)-N,N,2-trimethyl-propanamidine
@<TRIPOS>ATOM
      1 C1          6.0387    1.6782   -2.3886 C.3       1 <0>        -0.1627
      2 C2          4.7028    1.1086   -1.9071 C.3       1 <0>        -0.1101
      3 C3          4.0430    0.3254   -3.0438 C.3       1 <0>        -0.1474
      4 C4          4.9410    0.1901   -0.7364 C.2       1 <0>         0.4451
      5 N1          4.2039    0.2927    0.3321 N.2       1 <0>        -0.5955
      6 C5          3.2968    1.3161    0.4442 C.ar      1 <0>         0.1684
      7 C6          1.9297    1.0390    0.4839 C.ar      1 <0>        -0.1245
      8 C7          1.0218    2.0716    0.5962 C.ar      1 <0>        -0.0749
      9 C8          1.4642    3.3814    0.6695 C.ar      1 <0>        -0.0607
     10 C9          2.8201    3.6632    0.6307 C.ar      1 <0>        -0.0064
     11 C10         3.7379    2.6374    0.5184 C.ar      1 <0>        -0.1480
     12 Cl1         3.3663    5.3085    0.7227 Cl        1 <0>        -0.0502
     13 Cl2         0.3154    4.6760    0.8035 Cl        1 <0>        -0.0533
     14 N2          5.9318   -0.7515   -0.7961 N.pl3     1 <0>        -0.5921
     15 C11         6.1497   -1.6583    0.3337 C.3       1 <0>         0.0918
     16 C12         6.7748   -0.8531   -1.9900 C.3       1 <0>         0.0728
     17 H1          6.6518    1.9441   -1.5275 H         1 <0>         0.0600
     18 H2          6.5581    0.9299   -2.9872 H         1 <0>         0.0773
     19 H3          5.8580    2.5663   -2.9941 H         1 <0>         0.0666
     20 H4          4.0489    1.9252   -1.6011 H         1 <0>         0.1026
     21 H5          3.0346    0.0359   -2.7481 H         1 <0>         0.0607
     22 H6          3.9948    0.9504   -3.9355 H         1 <0>         0.0715
     23 H7          4.6295   -0.5681   -3.2577 H         1 <0>         0.0653
     24 H8          1.5829    0.0177    0.4271 H         1 <0>         0.1376
     25 H9         -0.0364    1.8578    0.6266 H         1 <0>         0.1433
     26 H10         4.7947    2.8577    0.4882 H         1 <0>         0.1365
     27 H11         5.5418   -2.5536    0.2035 H         1 <0>         0.0537
     28 H12         7.2025   -1.9372    0.3779 H         1 <0>         0.0675
     29 H13         5.8669   -1.1587    1.2603 H         1 <0>         0.0825
     30 H14         7.5949   -0.1388   -1.9175 H         1 <0>         0.0633
     31 H15         7.1781   -1.8629   -2.0652 H         1 <0>         0.0746
     32 H16         6.1786   -0.6330   -2.8756 H         1 <0>         0.0845
@<TRIPOS>BOND
     1    1    2 1
     2    1   17 1
     3    1   18 1
     4    1   19 1
     5    2    3 1
     6    2    4 1
     7    2   20 1
     8    3   21 1
     9    3   22 1
    10    3   23 1
    11    4    5 2
    12    4   14 1
    13    5    6 1
    14    6   11 ar
    15    6    7 ar
    16    7    8 ar
    17    7   24 1
    18    8    9 ar
    19    8   25 1
    20    9   10 ar
    21    9   13 1
    22   10   11 ar
    23   10   12 1
    24   11   26 1
    25   14   15 1
    26   14   16 1
    27   15   27 1
    28   15   28 1
    29   15   29 1
    30   16   30 1
    31   16   31 1
    32   16   32 1
@<TRIPOS>MOLECULE
ZINC37306402
   37    38     0     0     0
SMALL
USER_CHARGES

@<TRIPOS>ATOM
      1 C1         -0.0438    1.5096    0.0359 C.3       1 <0>        -0.1483
      2 C2         -0.0070   -0.0198    0.0179 C.3       1 <0>        -0.1097
      3 H1         -1.0253   -0.4084    0.0306 H         1 <0>         0.0841
      4 C3          0.7068   -0.4987   -1.2483 C.3       1 <0>        -0.1110
      5 C4          2.1256    0.0738   -1.2836 C.3       1 <0>        -0.1103
      6 H2          2.0793    1.1625   -1.2585 H         1 <0>         0.0806
      7 C5          2.9069   -0.4329   -0.0672 C.3       1 <0>         0.1168
      8 N1          2.1531   -0.1028    1.1500 N.pl3     1 <0>        -0.6101
      9 C6          0.7494   -0.5276    1.2495 C.3       1 <0>         0.1179
     10 C7          2.7568    0.5987    2.1896 C.ar      1 <0>         0.2542
     11 C8          1.9998    1.0043    3.2851 C.ar      1 <0>        -0.1774
     12 C9          2.5936    1.6981    4.3148 C.ar      1 <0>        -0.0137
     13 C10         3.9588    1.9954    4.2597 C.ar      1 <0>        -0.0494
     14 C11         4.7159    1.5866    3.1580 C.ar      1 <0>        -0.0830
     15 C12         4.1168    0.8880    2.1341 C.ar      1 <0>        -0.1596
     16 C13         6.1875    1.9051    3.0939 C.3       1 <0>         0.5027
     17 F1          6.7233    1.3968    1.9058 F         1 <0>        -0.1724
     18 F2          6.3663    3.2922    3.1303 F         1 <0>        -0.1706
     19 F3          6.8388    1.3221    4.1862 F         1 <0>        -0.1705
     20 C14         4.5798    2.7175    5.3290 C.1       1 <0>         0.2399
     21 N2          5.0724    3.2904    6.1774 N.1       1 <0>        -0.3969
     22 C15         2.8268   -0.3781   -2.5662 C.3       1 <0>        -0.1484
     23 H3          0.9747    1.8977    0.0233 H         1 <0>         0.0601
     24 H4         -0.5811    1.8705   -0.8411 H         1 <0>         0.0558
     25 H5         -0.5513    1.8502    0.9385 H         1 <0>         0.0545
     26 H6          0.7545   -1.5877   -1.2484 H         1 <0>         0.0653
     27 H7          0.1563   -0.1595   -2.1258 H         1 <0>         0.0680
     28 H8          3.0322   -1.5134   -0.1376 H         1 <0>         0.0713
     29 H9          3.8840    0.0490   -0.0339 H         1 <0>         0.0861
     30 H10         0.3029   -0.1082    2.1511 H         1 <0>         0.0886
     31 H11         0.6988   -1.6158    1.2864 H         1 <0>         0.0711
     32 H12         0.9454    0.7747    3.3269 H         1 <0>         0.1438
     33 H13         2.0057    2.0129    5.1644 H         1 <0>         0.1449
     34 H14         4.7021    0.5679    1.2847 H         1 <0>         0.1488
     35 H15         2.2689   -0.0193   -3.4311 H         1 <0>         0.0606
     36 H16         3.8373    0.0299   -2.5909 H         1 <0>         0.0585
     37 H17         2.8739   -1.4668   -2.5903 H         1 <0>         0.0576
@<TRIPOS>BOND
     1    1    2 1
     2    1   23 1
     3    1   24 1
     4    1   25 1
     5    2    3 1
     6    2    9 1
     7    2    4 1
     8    4    5 1
     9    4   26 1
    10    4   27 1
    11    5    6 1
    12    5    7 1
    13    5   22 1
    14    7    8 1
    15    7   28 1
    16    7   29 1
    17    8    9 1
    18    8   10 1
    19    9   30 1
    20    9   31 1
    21   10   15 ar
    22   10   11 ar
    23   11   12 ar
    24   11   32 1
    25   12   13 ar
    26   12   33 1
    27   13   14 ar
    28   13   20 1
    29   14   15 ar
    30   14   16 1
    31   15   34 1
    32   16   17 1
    33   16   18 1
    34   16   19 1
    35   20   21 3
    36   22   35 1
    37   22   36 1
    38   22   37 1
@<TRIPOS>MOLECULE
ZINC52173742
   46    47     0     0     0
SMALL
USER_CHARGES

@<TRIPOS>ATOM
      1 C1         -0.0187    1.5258    0.0104 C.3       1 <0>        -0.1483
      2 C2          0.0021   -0.0041    0.0020 C.3       1 <0>        -0.0626
      3 C3          0.7421   -0.5109    1.2415 C.3       1 <0>        -0.1458
      4 C4         -1.4333   -0.5336    0.0129 C.3       1 <0>        -0.1459
      5 C5          0.7182   -0.4975   -1.2568 C.3       1 <0>        -0.0814
      6 H1          0.7325   -1.5874   -1.2618 H         1 <0>         0.0762
      7 C6         -0.0246    0.0070   -2.4951 C.3       1 <0>        -0.1136
      8 C7          0.6380   -0.5630   -3.7536 C.3       1 <0>        -0.1716
      9 C8          2.1092   -0.2123   -3.7233 C.2       1 <0>         0.3631
     10 O1          2.6395    0.3161   -4.6709 O.2       1 <0>        -0.4486
     11 C9          2.8992   -0.5408   -2.4759 C.3       1 <0>        -0.1387
     12 H2          2.9907   -1.6223   -2.3747 H         1 <0>         0.1047
     13 C10         2.1540    0.0298   -1.2645 C.3       1 <0>        -0.1082
     14 C11         4.2917    0.0862   -2.5695 C.3       1 <0>        -0.0986
     15 C12         5.0663   -0.5613   -3.7192 C.3       1 <0>        -0.1008
     16 C13         5.3189   -2.0378   -3.3994 C.3       1 <0>        -0.1522
     17 C14         6.1615   -2.6572   -4.5175 C.3       1 <0>         0.0596
     18 O2          7.3850   -1.9305   -4.6483 O.3       1 <0>        -0.3835
     19 C15         7.2124   -0.5546   -4.9935 C.3       1 <0>         0.0596
     20 C16         6.4120    0.1492   -3.8945 C.3       1 <0>        -0.1483
     21 H3          1.0039    1.9031    0.0027 H         1 <0>         0.0574
     22 H4         -0.5459    1.8868   -0.8726 H         1 <0>         0.0573
     23 H5         -0.5289    1.8773    0.9072 H         1 <0>         0.0545
     24 H6          0.2319   -0.1594    2.1383 H         1 <0>         0.0551
     25 H7          0.7568   -1.6008    1.2356 H         1 <0>         0.0551
     26 H8          1.7647   -0.1336    1.2338 H         1 <0>         0.0584
     27 H9         -1.9605   -0.1726   -0.8702 H         1 <0>         0.0583
     28 H10        -1.4185   -1.6235    0.0069 H         1 <0>         0.0551
     29 H11        -1.9435   -0.1821    0.9097 H         1 <0>         0.0552
     30 H12        -1.0643   -0.3178   -2.4528 H         1 <0>         0.0791
     31 H13         0.0154    1.0959   -2.5245 H         1 <0>         0.0701
     32 H14         0.5202   -1.6465   -3.7707 H         1 <0>         0.0968
     33 H15         0.1761   -0.1277   -4.6397 H         1 <0>         0.0879
     34 H16         2.1413    1.1181   -1.3238 H         1 <0>         0.0707
     35 H17         2.6596   -0.2789   -0.3495 H         1 <0>         0.0792
     36 H18         4.1967    1.1564   -2.7527 H         1 <0>         0.0671
     37 H19         4.8269   -0.0762   -1.6339 H         1 <0>         0.0691
     38 H20         4.4883   -0.4799   -4.6397 H         1 <0>         0.0917
     39 H21         5.8532   -2.1193   -2.4528 H         1 <0>         0.0713
     40 H22         4.3665   -2.5631   -3.3275 H         1 <0>         0.0692
     41 H23         6.3805   -3.6969   -4.2743 H         1 <0>         0.0925
     42 H24         5.6096   -2.6118   -5.4563 H         1 <0>         0.0485
     43 H25         8.1884   -0.0796   -5.0932 H         1 <0>         0.0931
     44 H26         6.6742   -0.4817   -5.9386 H         1 <0>         0.0499
     45 H27         6.2413    1.1881   -4.1768 H         1 <0>         0.0728
     46 H28         6.9684    0.1119   -2.9580 H         1 <0>         0.0693
@<TRIPOS>BOND
     1    1    2 1
     2    1   21 1
     3    1   22 1
     4    1   23 1
     5    2    3 1
     6    2    4 1
     7    2    5 1
     8    3   24 1
     9    3   25 1
    10    3   26 1
    11    4   27 1
    12    4   28 1
    13    4   29 1
    14    5    6 1
    15    5   13 1
    16    5    7 1
    17    7    8 1
    18    7   30 1
    19    7   31 1
    20    8    9 1
    21    8   32 1
    22    8   33 1
    23    9   10 2
    24    9   11 1
    25   11   12 1
    26   11   13 1
    27   11   14 1
    28   13   34 1
    29   13   35 1
    30   14   15 1
    31   14   36 1
    32   14   37 1
    33   15   20 1
    34   15   16 1
    35   15   38 1
    36   16   17 1
    37   16   39 1
    38   16   40 1
    39   17   18 1
    40   17   41 1
    41   17   42 1
    42   18   19 1
    43   19   20 1
    44   19   43 1
    45   19   44 1
    46   20   45 1
    47   20   46 1
@<TRIPOS>MOLECULE
ZINC62772806
   35    36     0     0     0
SMALL
USER_CHARGES

@<TRIPOS>ATOM
      1 C1          0.0689    1.5033    0.0020 C.3       1 <0>        -0.1130
      2 C2          0.0663   -0.0037   -0.0041 C.ar      1 <0>        -0.1813
      3 C3          0.0435   -0.7082   -1.1965 C.ar      1 <0>         0.1899
      4 N1          0.0418   -2.0314   -1.1630 N.ar      1 <0>        -0.5050
      5 C4          0.0614   -2.6785   -0.0149 C.ar      1 <0>         0.3474
      6 N2          0.0829   -2.0431    1.1394 N.ar      1 <0>        -0.4986
      7 C5          0.0923   -0.7192    1.1847 C.ar      1 <0>         0.2203
      8 Cl1         0.1287    0.1090    2.7099 Cl        1 <0>        -0.0088
      9 C6          0.0586   -4.1855   -0.0224 C.3       1 <0>         0.0482
     10 C7         -1.2558   -4.6901   -0.6212 C.3       1 <0>        -0.1352
     11 C8          1.2309   -4.6934   -0.8642 C.3       1 <0>        -0.1392
     12 C9          0.1959   -4.6951    1.3892 C.ar      1 <0>        -0.0655
     13 C10        -0.8149   -4.4729    2.3056 C.ar      1 <0>        -0.0810
     14 C11        -0.6890   -4.9404    3.6004 C.ar      1 <0>        -0.1208
     15 C12         0.4475   -5.6304    3.9787 C.ar      1 <0>        -0.1186
     16 C13         1.4579   -5.8534    3.0620 C.ar      1 <0>        -0.1224
     17 C14         1.3301   -5.3897    1.7660 C.ar      1 <0>        -0.1150
     18 C15         0.0204    0.0221   -2.5145 C.3       1 <0>        -0.1098
     19 H1          1.0970    1.8649   -0.0201 H         1 <0>         0.0826
     20 H2         -0.4645    1.8712   -0.8745 H         1 <0>         0.0815
     21 H3         -0.4237    1.8639    0.9050 H         1 <0>         0.0777
     22 H4         -1.3550   -4.3215   -1.6422 H         1 <0>         0.0714
     23 H5         -1.2578   -5.7801   -0.6267 H         1 <0>         0.0727
     24 H6         -2.0909   -4.3282   -0.0215 H         1 <0>         0.0574
     25 H7          2.1673   -4.3339   -0.4376 H         1 <0>         0.0584
     26 H8          1.2289   -5.7834   -0.8697 H         1 <0>         0.0730
     27 H9          1.1316   -4.3248   -1.8852 H         1 <0>         0.0736
     28 H10        -1.7028   -3.9338    2.0101 H         1 <0>         0.1127
     29 H11        -1.4784   -4.7662    4.3166 H         1 <0>         0.1192
     30 H12         0.5462   -5.9950    4.9904 H         1 <0>         0.1192
     31 H13         2.3460   -6.3922    3.3576 H         1 <0>         0.1201
     32 H14         2.1179   -5.5671    1.0489 H         1 <0>         0.1239
     33 H15         1.0424    0.1968   -2.8510 H         1 <0>         0.0907
     34 H16        -0.5078   -0.5795   -3.2541 H         1 <0>         0.0872
     35 H17        -0.4899    0.9774   -2.3917 H         1 <0>         0.0871
@<TRIPOS>BOND
     1    1    2 1
     2    1   19 1
     3    1   20 1
     4    1   21 1
     5    2    7 ar
     6    2    3 ar
     7    3    4 ar
     8    3   18 1
     9    4    5 ar
    10    5    6 ar
    11    5    9 1
    12    6    7 ar
    13    7    8 1
    14    9   10 1
    15    9   11 1
    16    9   12 1
    17   10   22 1
    18   10   23 1
    19   10   24 1
    20   11   25 1
    21   11   26 1
    22   11   27 1
    23   12   17 ar
    24   12   13 ar
    25   13   14 ar
    26   13   28 1
    27   14   15 ar
    28   14   29 1
    29   15   16 ar
    30   15   30 1
    31   16   17 ar
    32   16   31 1
    33   17   32 1
    34   18   33 1
    35   18   34 1
    36   18   35 1
@<TRIPOS>MOLECULE
ZINC03033905
   51    53     0     0     0
SMALL
USER_CHARGES
2,3-diethyl-N-(2-methylcyclohexyl)-quinoxaline-6-carboxamide
@<TRIPOS>ATOM
      1 C1          4.0442    2.3905   -1.4655 C.3       1 <0>        -0.1476
      2 C2          3.6236    2.1155   -0.0204 C.3       1 <0>        -0.0795
      3 C3          2.3393    1.3271   -0.0123 C.ar      1 <0>         0.1274
      4 C4          1.1148    2.0006    0.0022 C.ar      1 <0>         0.1164
      5 N1         -0.0161    1.3340    0.0094 N.ar      1 <0>        -0.4152
      6 C5          0.0021   -0.0041    0.0020 C.ar      1 <0>         0.0688
      7 C6         -1.1927   -0.7422    0.0089 C.ar      1 <0>        -0.0086
      8 C7         -1.1394   -2.1253    0.0006 C.ar      1 <0>        -0.1212
      9 C8          0.0989   -2.7914   -0.0151 C.ar      1 <0>        -0.0788
     10 C9          1.2637   -2.0947   -0.0220 C.ar      1 <0>        -0.0825
     11 C10         1.2440   -0.6878   -0.0134 C.ar      1 <0>         0.0946
     12 N2          2.3828    0.0145   -0.0201 N.ar      1 <0>        -0.4268
     13 C11        -2.3938   -2.9081    0.0078 C.2       1 <0>         0.5606
     14 O1         -3.4666   -2.3368    0.0210 O.2       1 <0>        -0.5283
     15 N3         -2.3476   -4.2550   -0.0003 N.am      1 <0>        -0.7142
     16 C12        -3.5904   -5.0306    0.0069 C.3       1 <0>         0.1512
     17 H1         -4.3497   -4.5055   -0.5726 H         1 <0>         0.0915
     18 C13        -4.0763   -5.2021    1.4475 C.3       1 <0>        -0.1324
     19 C14        -3.0105   -5.9392    2.2609 C.3       1 <0>        -0.1192
     20 C15        -2.7567   -7.3148    1.6411 C.3       1 <0>        -0.1220
     21 C16        -2.2708   -7.1434    0.2005 C.3       1 <0>        -0.1161
     22 C17        -3.3366   -6.4063   -0.6129 C.3       1 <0>        -0.1000
     23 H2         -4.2613   -6.9834   -0.6076 H         1 <0>         0.0879
     24 C18        -2.8507   -6.2348   -2.0535 C.3       1 <0>        -0.1494
     25 C19         1.0925    3.5074    0.0099 C.3       1 <0>        -0.0786
     26 C20         1.0984    4.0101    1.4550 C.3       1 <0>        -0.1478
     27 H3          4.1951    1.4448   -1.9862 H         1 <0>         0.0601
     28 H4          3.2640    2.9617   -1.9685 H         1 <0>         0.0581
     29 H5          4.9731    2.9607   -1.4714 H         1 <0>         0.0708
     30 H6          3.4727    3.0611    0.5003 H         1 <0>         0.0924
     31 H7          4.4038    1.5442    0.4826 H         1 <0>         0.0903
     32 H8         -2.1459   -0.2345    0.0203 H         1 <0>         0.1547
     33 H9          0.1234   -3.8711   -0.0214 H         1 <0>         0.1356
     34 H10         2.2068   -2.6208   -0.0344 H         1 <0>         0.1462
     35 H11        -1.4914   -4.7109   -0.0108 H         1 <0>         0.3986
     36 H12        -4.2571   -4.2221    1.8890 H         1 <0>         0.0693
     37 H13        -5.0010   -5.7792    1.4528 H         1 <0>         0.0739
     38 H14        -2.0858   -5.3621    2.2556 H         1 <0>         0.0603
     39 H15        -3.3566   -6.0614    3.2872 H         1 <0>         0.0631
     40 H16        -1.9974   -7.8400    2.2206 H         1 <0>         0.0635
     41 H17        -3.6814   -7.8919    1.6464 H         1 <0>         0.0647
     42 H18        -1.3461   -6.5663    0.1952 H         1 <0>         0.0578
     43 H19        -2.0900   -8.1234   -0.2411 H         1 <0>         0.0686
     44 H20        -1.9261   -5.6577   -2.0588 H         1 <0>         0.0544
     45 H21        -2.6700   -7.2148   -2.4951 H         1 <0>         0.0590
     46 H22        -3.6101   -5.7097   -2.6330 H         1 <0>         0.0576
     47 H23         1.9722    3.8865   -0.5102 H         1 <0>         0.0918
     48 H24         0.1925    3.8601   -0.4937 H         1 <0>         0.0904
     49 H25         0.2188    3.6310    1.9752 H         1 <0>         0.0604
     50 H26         1.9985    3.6575    1.9587 H         1 <0>         0.0575
     51 H27         1.0823    5.1000    1.4606 H         1 <0>         0.0706
@<TRIPOS>BOND
     1    1    2 1
     2    1   27 1
     3    1   28 1
     4    1   29 1
     5    2    3 1
     6    2   30 1
     7    2   31 1
     8    3   12 ar
     9    3    4 ar
    10    4    5 ar
    11    4   25 1
    12    5    6 ar
    13    6   11 ar
    14    6    7 ar
    15    7    8 ar
    16    7   32 1
    17    8    9 ar
    18    8   13 1
    19    9   10 ar
    20    9   33 1
    21   10   11 ar
    22   10   34 1
    23   11   12 ar
    24   13   14 2
    25   13   15 am
    26   15   16 1
    27   15   35 1
    28   16   17 1
    29   16   22 1
    30   16   18 1
    31   18   19 1
    32   18   36 1
    33   18   37 1
    34   19   20 1
    35   19   38 1
    36   19   39 1
    37   20   21 1
    38   20   40 1
    39   20   41 1
    40   21   22 1
    41   21   42 1
    42   21   43 1
    43   22   23 1
    44   22   24 1
    45   24   44 1
    46   24   45 1
    47   24   46 1
    48   25   26 1
    49   25   47 1
    50   25   48 1
    51   26   49 1
    52   26   50 1
    53   26   51 1
@<TRIPOS>MOLECULE
ZINC12016504
   37    39     0     0     0
SMALL
USER_CHARGES
N-(5-chloro-2-methoxy-phenyl)-2-methylsulfanyl-6,7-dihydro-5H-cyclopenta[e]pyrimidin-4-amine
@<TRIPOS>ATOM
      1 C1         -2.1035    4.8647    1.7338 C.3       1 <0>         0.0277
      2 O1         -2.2497    3.5618    1.1655 O.3       1 <0>        -0.3188
      3 C2         -1.1521    3.0201    0.5723 C.ar      1 <0>         0.0978
      4 C3          0.0384    3.7272    0.5383 C.ar      1 <0>        -0.1725
      5 C4          1.1537    3.1758   -0.0650 C.ar      1 <0>        -0.0916
      6 C5          1.0847    1.9173   -0.6362 C.ar      1 <0>        -0.0483
      7 C6         -0.1006    1.2052   -0.6062 C.ar      1 <0>        -0.0966
      8 C7         -1.2246    1.7554   -0.0075 C.ar      1 <0>         0.1480
      9 N1         -2.4275    1.0389    0.0192 N.pl3     1 <0>        -0.6348
     10 C8         -2.4139   -0.3424   -0.0931 C.ar      1 <0>         0.4543
     11 C9         -3.6096   -1.0571   -0.1971 C.ar      1 <0>        -0.2672
     12 C10        -3.5521   -2.4309   -0.3075 C.ar      1 <0>         0.2106
     13 N2         -2.3684   -3.0298   -0.3120 N.ar      1 <0>        -0.5258
     14 C11        -1.2491   -2.3279   -0.2124 C.ar      1 <0>         0.3365
     15 N3         -1.2627   -1.0067   -0.1089 N.ar      1 <0>        -0.5706
     16 S1          0.2974   -3.1722   -0.2234 S.3       1 <0>         0.0139
     17 C12         1.4249   -1.7650   -0.0657 C.3       1 <0>        -0.1503
     18 C13        -4.9517   -2.9948   -0.4073 C.3       1 <0>        -0.0730
     19 C14        -5.8792   -1.8645    0.0887 C.3       1 <0>        -0.1163
     20 C15        -5.0489   -0.5982   -0.2142 C.3       1 <0>        -0.0646
     21 Cl1         2.4885    1.2312   -1.3926 Cl        1 <0>        -0.0634
     22 H1         -1.3351    4.8400    2.5065 H         1 <0>         0.0586
     23 H2         -1.8132    5.5702    0.9552 H         1 <0>         0.0588
     24 H3         -3.0506    5.1779    2.1731 H         1 <0>         0.1036
     25 H4          0.0955    4.7098    0.9828 H         1 <0>         0.1422
     26 H5          2.0812    3.7286   -0.0902 H         1 <0>         0.1379
     27 H6         -0.1522    0.2232   -1.0526 H         1 <0>         0.1684
     28 H7         -3.2702    1.5094    0.1162 H         1 <0>         0.4278
     29 H8          2.4542   -2.1234   -0.0563 H         1 <0>         0.1084
     30 H9          1.2830   -1.0895   -0.9093 H         1 <0>         0.0922
     31 H10         1.2163   -1.2347    0.8635 H         1 <0>         0.0906
     32 H11        -5.0518   -3.8733    0.2301 H         1 <0>         0.0934
     33 H12        -5.1855   -3.2497   -1.4410 H         1 <0>         0.0990
     34 H13        -6.0666   -1.9583    1.1583 H         1 <0>         0.0783
     35 H14        -6.8148   -1.8574   -0.4706 H         1 <0>         0.0879
     36 H15        -5.2148    0.1560    0.5551 H         1 <0>         0.0751
     37 H16        -5.3080   -0.2017   -1.1959 H         1 <0>         0.0825
@<TRIPOS>BOND
     1    1    2 1
     2    1   22 1
     3    1   23 1
     4    1   24 1
     5    2    3 1
     6    3    8 ar
     7    3    4 ar
     8    4    5 ar
     9    4   25 1
    10    5    6 ar
    11    5   26 1
    12    6    7 ar
    13    6   21 1
    14    7    8 ar
    15    7   27 1
    16    8    9 1
    17    9   10 1
    18    9   28 1
    19   10   15 ar
    20   10   11 ar
    21   11   20 1
    22   11   12 ar
    23   12   13 ar
    24   12   18 1
    25   13   14 ar
    26   14   15 ar
    27   14   16 1
    28   16   17 1
    29   17   29 1
    30   17   30 1
    31   17   31 1
    32   18   19 1
    33   18   32 1
    34   18   33 1
    35   19   20 1
    36   19   34 1
    37   19   35 1
    38   20   36 1
    39   20   37 1
@<TRIPOS>MOLECULE
ZINC36970726
   38    39     0     0     0
SMALL
USER_CHARGES

@<TRIPOS>ATOM
      1 C1          0.7138    1.4214   -0.3141 C.3       1 <0>        -0.1181
      2 C2          0.5632   -0.0762   -0.2405 C.ar      1 <0>        -0.0757
      3 C3          0.6131   -0.8336   -1.3961 C.ar      1 <0>        -0.1177
      4 C4          0.4749   -2.2071   -1.3286 C.ar      1 <0>        -0.1017
      5 C5          0.2872   -2.8238   -0.1055 C.ar      1 <0>        -0.1057
      6 C6          0.2382   -2.0667    1.0498 C.ar      1 <0>        -0.0681
      7 C7          0.3807   -0.6932    0.9828 C.ar      1 <0>        -0.1171
      8 C8          0.0331   -2.7388    2.3830 C.3       1 <0>        -0.1224
      9 C9          0.1356   -4.3213   -0.0320 C.3       1 <0>         0.1806
     10 H1         -0.5288   -4.5792    0.7927 H         1 <0>         0.0990
     11 C10         1.5059   -4.9621    0.1974 C.3       1 <0>        -0.1666
     12 N1         -0.4311   -4.8170   -1.2888 N.pl3     1 <0>        -0.7172
     13 C11        -1.1413   -6.0195   -1.3084 C.ar      1 <0>         0.2956
     14 C12        -1.3436   -6.7276   -0.1306 C.ar      1 <0>        -0.1952
     15 C13        -2.0467   -7.9171   -0.1536 C.ar      1 <0>         0.0576
     16 C14        -2.5484   -8.4027   -1.3490 C.ar      1 <0>        -0.1680
     17 C15        -2.3482   -7.6996   -2.5223 C.ar      1 <0>         0.0028
     18 C16        -1.6516   -6.5070   -2.5048 C.ar      1 <0>        -0.1263
     19 N2         -1.4433   -5.7524   -3.7609 N.pl3     1 <0>         0.0434
     20 O1         -1.4876   -4.5442   -3.7547 O.2       1 <0>        -0.1809
     21 O2         -1.2289   -6.3441   -4.7931 O.3       1 <0>        -0.1413
     22 Cl1        -2.3006   -8.8033    1.3174 Cl        1 <0>        -0.0384
     23 H2          1.7680    1.6852   -0.2291 H         1 <0>         0.0727
     24 H3          0.3255    1.7793   -1.2676 H         1 <0>         0.0688
     25 H4          0.1569    1.8831    0.5013 H         1 <0>         0.0679
     26 H5          0.7598   -0.3519   -2.3515 H         1 <0>         0.1261
     27 H6          0.5133   -2.7987   -2.2314 H         1 <0>         0.1190
     28 H7          0.3462   -0.1020    1.8859 H         1 <0>         0.1256
     29 H8          1.0010   -2.9986    2.8116 H         1 <0>         0.0756
     30 H9         -0.4916   -2.0599    3.0552 H         1 <0>         0.0714
     31 H10        -0.5585   -3.6441    2.2463 H         1 <0>         0.0673
     32 H11         1.3962   -6.0452    0.2505 H         1 <0>         0.0652
     33 H12         2.1702   -4.7042   -0.6274 H         1 <0>         0.0647
     34 H13         1.9274   -4.5933    1.1324 H         1 <0>         0.0763
     35 H14        -0.3130   -4.3101   -2.1073 H         1 <0>         0.4146
     36 H15        -0.9516   -6.3492    0.8019 H         1 <0>         0.1546
     37 H16        -3.0970   -9.3328   -1.3649 H         1 <0>         0.1546
     38 H17        -2.7409   -8.0812   -3.4533 H         1 <0>         0.1570
@<TRIPOS>BOND
     1    1    2 1
     2    1   23 1
     3    1   24 1
     4    1   25 1
     5    2    7 ar
     6    2    3 ar
     7    3    4 ar
     8    3   26 1
     9    4    5 ar
    10    4   27 1
    11    5    6 ar
    12    5    9 1
    13    6    7 ar
    14    6    8 1
    15    7   28 1
    16    8   29 1
    17    8   30 1
    18    8   31 1
    19    9   10 1
    20    9   11 1
    21    9   12 1
    22   11   32 1
    23   11   33 1
    24   11   34 1
    25   12   13 1
    26   12   35 1
    27   13   18 ar
    28   13   14 ar
    29   14   15 ar
    30   14   36 1
    31   15   16 ar
    32   15   22 1
    33   16   17 ar
    34   16   37 1
    35   17   18 ar
    36   17   38 1
    37   18   19 1
    38   19   20 2
    39   19   21 1
@<TRIPOS>MOLECULE
ZINC38486579
   35    37     0     0     0
SMALL
USER_CHARGES

@<TRIPOS>ATOM
      1 C1          1.9884    1.2511    0.8082 C.3       1 <0>         0.0302
      2 O1          1.8064   -0.1631    0.7133 O.3       1 <0>        -0.3267
      3 C2          1.9631   -0.7194   -0.5030 C.2       1 <0>         0.5210
      4 O2          2.2463   -0.0236   -1.4568 O.2       1 <0>        -0.4900
      5 C3          1.7898   -2.1809   -0.6773 C.ar      1 <0>         0.1676
      6 C4          1.9620   -2.7417   -1.9468 C.ar      1 <0>        -0.2125
      7 C5          1.8018   -4.1074   -2.1184 C.ar      1 <0>         0.2525
      8 C6          1.4662   -4.8844   -0.9842 C.ar      1 <0>        -0.1178
      9 C7          1.2884   -6.2715   -1.0795 C.ar      1 <0>        -0.0990
     10 C8          0.9660   -6.9881    0.0335 C.ar      1 <0>        -0.1062
     11 C9          0.8097   -6.3600    1.2675 C.ar      1 <0>        -0.0926
     12 C10         0.9748   -5.0158    1.3967 C.ar      1 <0>        -0.0860
     13 C11         1.3088   -4.2415    0.2693 C.ar      1 <0>         0.1568
     14 N1          1.4817   -2.9228    0.3711 N.ar      1 <0>        -0.4499
     15 N2          1.9650   -4.6952   -3.3644 N.pl3     1 <0>        -0.6600
     16 C12         2.4475   -3.9383   -4.4366 C.ar      1 <0>         0.1729
     17 C13         3.4950   -3.0467   -4.2429 C.ar      1 <0>        -0.1268
     18 C14         3.9708   -2.2996   -5.3027 C.ar      1 <0>        -0.0940
     19 C15         3.4049   -2.4381   -6.5584 C.ar      1 <0>         0.0556
     20 C16         2.3591   -3.3272   -6.7553 C.ar      1 <0>         0.0971
     21 C17         1.8838   -4.0812   -5.6976 C.ar      1 <0>        -0.1530
     22 F1          1.8081   -3.4610   -7.9816 F         1 <0>        -0.1214
     23 F2          3.8718   -1.7058   -7.5933 F         1 <0>        -0.1243
     24 H1          3.0005    1.5089    0.4964 H         1 <0>         0.0635
     25 H2          1.2696    1.7541    0.1614 H         1 <0>         0.0633
     26 H3          1.8338    1.5689    1.8394 H         1 <0>         0.1069
     27 H4          2.2178   -2.1144   -2.7880 H         1 <0>         0.1588
     28 H5          1.4061   -6.7696   -2.0305 H         1 <0>         0.1263
     29 H6          0.8294   -8.0568   -0.0418 H         1 <0>         0.1329
     30 H7          0.5532   -6.9497    2.1352 H         1 <0>         0.1362
     31 H8          0.8497   -4.5444    2.3603 H         1 <0>         0.1440
     32 H9          1.7445   -5.6311   -3.4917 H         1 <0>         0.4194
     33 H10         3.9371   -2.9375   -3.2636 H         1 <0>         0.1480
     34 H11         4.7850   -1.6063   -5.1514 H         1 <0>         0.1554
     35 H12         1.0723   -4.7771   -5.8514 H         1 <0>         0.1518
@<TRIPOS>BOND
     1    1    2 1
     2    1   24 1
     3    1   25 1
     4    1   26 1
     5    2    3 1
     6    3    4 2
     7    3    5 1
     8    5   14 ar
     9    5    6 ar
    10    6    7 ar
    11    6   27 1
    12    7    8 ar
    13    7   15 1
    14    8   13 ar
    15    8    9 ar
    16    9   10 ar
    17    9   28 1
    18   10   11 ar
    19   10   29 1
    20   11   12 ar
    21   11   30 1
    22   12   13 ar
    23   12   31 1
    24   13   14 ar
    25   15   16 1
    26   15   32 1
    27   16   21 ar
    28   16   17 ar
    29   17   18 ar
    30   17   33 1
    31   18   19 ar
    32   18   34 1
    33   19   20 ar
    34   19   23 1
    35   20   21 ar
    36   20   22 1
    37   21   35 1
@<TRIPOS>MOLECULE
ZINC33947355
   41    43     0     0     0
SMALL
USER_CHARGES

@<TRIPOS>ATOM
      1 C1          0.5013    1.4991    0.0531 C.3       1 <0>        -0.1144
      2 C2          0.6268   -0.0026    0.0642 C.ar      1 <0>        -0.1330
      3 C3          0.8362   -0.6876   -1.1164 C.ar      1 <0>        -0.0840
      4 C4          0.9521   -2.0656   -1.1072 C.ar      1 <0>        -0.1453
      5 C5          0.8584   -2.7631    0.0837 C.ar      1 <0>        -0.0901
      6 C6          0.6487   -2.0854    1.2680 C.ar      1 <0>        -0.1445
      7 C7          0.5378   -0.6995    1.2635 C.ar      1 <0>         0.1900
      8 N1          0.3322   -0.0107    2.4587 N.pl3     1 <0>        -0.5653
      9 N2          0.1343   -0.7198    3.6507 N.2       1 <0>        -0.1120
     10 C8         -0.1566   -0.0769    4.7549 C.2       1 <0>        -0.0737
     11 C9         -0.3748    1.3218    4.7233 C.2       1 <0>         0.3840
     12 O1          0.5659    2.0806    4.6059 O.2       1 <0>        -0.4372
     13 C10        -1.7746    1.8687    4.8352 C.3       1 <0>        -0.1972
     14 S1         -0.2761   -0.9530    6.2790 S.3       1 <0>         0.1537
     15 C11         1.3994   -1.2798    6.7154 C.ar      1 <0>        -0.0980
     16 C12         2.4290   -0.7604    5.9584 C.ar      1 <0>        -0.0941
     17 C13         3.7558   -1.0106    6.2927 C.ar      1 <0>        -0.0992
     18 C14         4.0742   -1.7743    7.3751 C.ar      1 <0>        -0.0931
     19 C15         3.0550   -2.3212    8.1712 C.ar      1 <0>        -0.0893
     20 C16         1.6993   -2.0711    7.8469 C.ar      1 <0>         0.1503
     21 N3          0.7277   -2.5857    8.6044 N.ar      1 <0>        -0.4721
     22 C17         0.9994   -3.3211    9.6553 C.ar      1 <0>         0.1382
     23 C18         2.3104   -3.6019   10.0337 C.ar      1 <0>        -0.1717
     24 C19         3.3516   -3.1148    9.2958 C.ar      1 <0>        -0.0541
     25 H1          1.4873    1.9471    0.1758 H         1 <0>         0.0727
     26 H2          0.0715    1.8208   -0.8955 H         1 <0>         0.0769
     27 H3         -0.1459    1.8156    0.8711 H         1 <0>         0.0541
     28 H4          0.9092   -0.1465   -2.0482 H         1 <0>         0.1284
     29 H5          1.1158   -2.5986   -2.0321 H         1 <0>         0.1252
     30 H6          0.9490   -3.8393    0.0870 H         1 <0>         0.1275
     31 H7          0.5752   -2.6307    2.1973 H         1 <0>         0.1339
     32 H8          0.3261    0.9593    2.4646 H         1 <0>         0.3972
     33 H9         -2.4705    1.0507    5.0216 H         1 <0>         0.0897
     34 H10        -1.8217    2.5807    5.6593 H         1 <0>         0.1074
     35 H11        -2.0441    2.3704    3.9058 H         1 <0>         0.0993
     36 H12         2.2021   -0.1522    5.0952 H         1 <0>         0.1243
     37 H13         4.5452   -0.5936    5.6850 H         1 <0>         0.1320
     38 H14         5.1096   -1.9591    7.6204 H         1 <0>         0.1353
     39 H15         0.1856   -3.7193   10.2432 H         1 <0>         0.1640
     40 H16         2.5032   -4.2108   10.9045 H         1 <0>         0.1415
     41 H17         4.3742   -3.3227    9.5743 H         1 <0>         0.1427
@<TRIPOS>BOND
     1    1    2 1
     2    1   25 1
     3    1   26 1
     4    1   27 1
     5    2    7 ar
     6    2    3 ar
     7    3    4 ar
     8    3   28 1
     9    4    5 ar
    10    4   29 1
    11    5    6 ar
    12    5   30 1
    13    6    7 ar
    14    6   31 1
    15    7    8 1
    16    8    9 1
    17    8   32 1
    18    9   10 2
    19   10   11 1
    20   10   14 1
    21   11   12 2
    22   11   13 1
    23   13   33 1
    24   13   34 1
    25   13   35 1
    26   14   15 1
    27   15   20 ar
    28   15   16 ar
    29   16   17 ar
    30   16   36 1
    31   17   18 ar
    32   17   37 1
    33   18   19 ar
    34   18   38 1
    35   19   24 ar
    36   19   20 ar
    37   20   21 ar
    38   21   22 ar
    39   22   23 ar
    40   22   39 1
    41   23   24 ar
    42   23   40 1
    43   24   41 1
@<TRIPOS>MOLECULE
ZINC07636193
   41    43     0     0     0
SMALL
USER_CHARGES
N-butyl-9-(2-chlorophenyl)-3-methyl-2,6,7-triazabicyclo[4.3.0]nona-2,4,7,9-tetraen-5-amine
@<TRIPOS>ATOM
      1 C1         -8.6401    2.5991    0.4492 C.3       1 <0>        -0.1545
      2 C2         -7.1695    2.2798    0.1728 C.3       1 <0>        -0.1201
      3 C3         -6.3467    2.5301    1.4383 C.3       1 <0>        -0.1338
      4 C4         -4.8762    2.2108    1.1619 C.3       1 <0>         0.1207
      5 N1         -4.0884    2.4504    2.3736 N.pl3     1 <0>        -0.7114
      6 C5         -2.7282    2.2299    2.3658 C.2       1 <0>         0.4849
      7 C6         -2.0951    1.7900    1.2222 C.2       1 <0>        -0.3280
      8 C7         -0.7181    1.5718    1.2479 C.2       1 <0>         0.2460
      9 N2         -0.0306    1.7933    2.3479 N.2       1 <0>        -0.5045
     10 C8         -0.6288    2.2251    3.4630 C.2       1 <0>         0.3382
     11 N3         -1.9798    2.4501    3.4922 N.pl3     1 <0>        -0.3456
     12 N4         -2.3162    2.8914    4.7763 N.2       1 <0>        -0.3306
     13 C9         -1.2339    2.9406    5.5133 C.2       1 <0>         0.1246
     14 C10        -0.1410    2.5322    4.7393 C.2       1 <0>        -0.2326
     15 C11         1.2680    2.4414    5.1870 C.ar      1 <0>         0.0244
     16 C12         1.6304    1.5300    6.1787 C.ar      1 <0>        -0.0988
     17 C13         2.9455    1.4460    6.5875 C.ar      1 <0>        -0.1159
     18 C14         3.9026    2.2714    6.0243 C.ar      1 <0>        -0.1114
     19 C15         3.5494    3.1817    5.0445 C.ar      1 <0>        -0.1125
     20 C16         2.2376    3.2716    4.6225 C.ar      1 <0>        -0.0163
     21 Cl1         1.7954    4.4148    3.3931 Cl        1 <0>        -0.0667
     22 C17        -0.0127    1.0858    0.0080 C.3       1 <0>        -0.1070
     23 H1         -9.2262    2.4208   -0.4523 H         1 <0>         0.0588
     24 H2         -9.0059    1.9599    1.2528 H         1 <0>         0.0555
     25 H3         -8.7358    3.6441    0.7441 H         1 <0>         0.0555
     26 H4         -6.8037    2.9191   -0.6307 H         1 <0>         0.0672
     27 H5         -7.0738    1.2348   -0.1220 H         1 <0>         0.0673
     28 H6         -6.7125    1.8908    2.2418 H         1 <0>         0.0729
     29 H7         -6.4425    3.5750    1.7332 H         1 <0>         0.0729
     30 H8         -4.5104    2.8500    0.3584 H         1 <0>         0.0760
     31 H9         -4.7805    1.1658    0.8670 H         1 <0>         0.0761
     32 H10        -4.5242    2.7642    3.1813 H         1 <0>         0.4158
     33 H11        -2.6597    1.6125    0.3188 H         1 <0>         0.1595
     34 H12        -1.1919    3.2455    6.5485 H         1 <0>         0.1973
     35 H13         0.8838    0.8881    6.6225 H         1 <0>         0.1289
     36 H14         3.2277    0.7376    7.3523 H         1 <0>         0.1281
     37 H15         4.9297    2.2050    6.3514 H         1 <0>         0.1299
     38 H16         4.3009    3.8235    4.6090 H         1 <0>         0.1315
     39 H17         0.0021   -0.0041    0.0020 H         1 <0>         0.0891
     40 H18         1.0099    1.4631    0.0003 H         1 <0>         0.0857
     41 H19        -0.5399    1.4469   -0.8751 H         1 <0>         0.0827
@<TRIPOS>BOND
     1    1    2 1
     2    1   23 1
     3    1   24 1
     4    1   25 1
     5    2    3 1
     6    2   26 1
     7    2   27 1
     8    3    4 1
     9    3   28 1
    10    3   29 1
    11    4    5 1
    12    4   30 1
    13    4   31 1
    14    5    6 1
    15    5   32 1
    16    6   11 1
    17    6    7 2
    18    7    8 1
    19    7   33 1
    20    8    9 2
    21    8   22 1
    22    9   10 1
    23   10   14 2
    24   10   11 1
    25   11   12 1
    26   12   13 2
    27   13   14 1
    28   13   34 1
    29   14   15 1
    30   15   20 ar
    31   15   16 ar
    32   16   17 ar
    33   16   35 1
    34   17   18 ar
    35   17   36 1
    36   18   19 ar
    37   18   37 1
    38   19   20 ar
    39   19   38 1
    40   20   21 1
    41   22   39 1
    42   22   40 1
    43   22   41 1
@<TRIPOS>MOLECULE
ZINC15841332
   45    47     0     0     0
SMALL
USER_CHARGES
N-(2,1,3-benzothiadiazol-5-yl)-4-butyl-cyclohexane-1-carboxamide
@<TRIPOS>ATOM
      1 C1         -6.9758    1.8635   -7.0762 C.3       1 <0>        -0.1537
      2 C2         -6.6812    2.7293   -5.8497 C.3       1 <0>        -0.1265
      3 C3         -6.6217    1.8444   -4.6030 C.3       1 <0>        -0.1206
      4 C4         -6.3271    2.7102   -3.3765 C.3       1 <0>        -0.1155
      5 C5         -6.2677    1.8252   -2.1298 C.3       1 <0>        -0.0861
      6 C6         -6.0974    2.7034   -0.8886 C.3       1 <0>        -0.1294
      7 C7         -6.0379    1.8185    0.3580 C.3       1 <0>        -0.0987
      8 C8         -4.8519    0.8585    0.2459 C.3       1 <0>        -0.1063
      9 C9         -5.0222   -0.0198   -0.9953 C.3       1 <0>        -0.1131
     10 C10        -5.0816    0.8652   -2.2420 C.3       1 <0>        -0.1202
     11 C11        -3.5745    1.6496    0.1301 C.2       1 <0>         0.5238
     12 O1         -3.6093    2.8620    0.1366 O.2       1 <0>        -0.5060
     13 N1         -2.3934    1.0099    0.0193 N.am      1 <0>        -0.6753
     14 C12        -1.1993    1.7397    0.0230 C.ar      1 <0>         0.1880
     15 C13        -1.1063    2.8984    0.8046 C.ar      1 <0>        -0.0908
     16 C14         0.0253    3.6395    0.8374 C.ar      1 <0>        -0.0476
     17 C15         1.1554    3.2483    0.0721 C.ar      1 <0>         0.0529
     18 C16         1.0630    2.0387   -0.7406 C.ar      1 <0>         0.0835
     19 C17        -0.1520    1.3069   -0.7296 C.ar      1 <0>        -0.1141
     20 N2          2.1923    1.7935   -1.4026 N.2       1 <0>        -0.5560
     21 S1          3.1832    2.9454   -1.0197 S.3       1 <0>         0.7415
     22 N3          2.3479    3.8313   -0.0334 N.2       1 <0>        -0.5455
     23 H1         -6.1866    1.1211   -7.1950 H         1 <0>         0.0527
     24 H2         -7.9326    1.3585   -6.9431 H         1 <0>         0.0532
     25 H3         -7.0181    2.4940   -7.9644 H         1 <0>         0.0531
     26 H4         -7.4704    3.4717   -5.7310 H         1 <0>         0.0602
     27 H5         -5.7244    3.2343   -5.9828 H         1 <0>         0.0596
     28 H6         -5.8325    1.1019   -4.7218 H         1 <0>         0.0620
     29 H7         -7.5785    1.3394   -4.4700 H         1 <0>         0.0602
     30 H8         -7.1163    3.4526   -3.2578 H         1 <0>         0.0619
     31 H9         -5.3703    3.2151   -3.5096 H         1 <0>         0.0604
     32 H10        -7.1916    1.2530   -2.0461 H         1 <0>         0.0686
     33 H11        -6.9423    3.3874   -0.8087 H         1 <0>         0.0605
     34 H12        -5.1734    3.2757   -0.9724 H         1 <0>         0.0900
     35 H13        -6.9619    1.2463    0.4418 H         1 <0>         0.0708
     36 H14        -5.9166    2.4441    1.2423 H         1 <0>         0.0702
     37 H15        -4.8096    0.2280    1.1341 H         1 <0>         0.1025
     38 H16        -4.1772   -0.7037   -1.0752 H         1 <0>         0.0661
     39 H17        -5.9461   -0.5920   -0.9116 H         1 <0>         0.0798
     40 H18        -5.2029    0.2396   -3.1262 H         1 <0>         0.0693
     41 H19        -4.1577    1.4374   -2.3257 H         1 <0>         0.0602
     42 H20        -2.3710    0.0437   -0.0629 H         1 <0>         0.4142
     43 H21        -1.9577    3.2087    1.3922 H         1 <0>         0.1505
     44 H22         0.0688    4.5302    1.4466 H         1 <0>         0.1465
     45 H23        -0.2472    0.4088   -1.3220 H         1 <0>         0.1431
@<TRIPOS>BOND
     1    1    2 1
     2    1   23 1
     3    1   24 1
     4    1   25 1
     5    2    3 1
     6    2   26 1
     7    2   27 1
     8    3    4 1
     9    3   28 1
    10    3   29 1
    11    4    5 1
    12    4   30 1
    13    4   31 1
    14    5   10 1
    15    5    6 1
    16    5   32 1
    17    6    7 1
    18    6   33 1
    19    6   34 1
    20    7    8 1
    21    7   35 1
    22    7   36 1
    23    8    9 1
    24    8   11 1
    25    8   37 1
    26    9   10 1
    27    9   38 1
    28    9   39 1
    29   10   40 1
    30   10   41 1
    31   11   12 2
    32   11   13 am
    33   13   14 1
    34   13   42 1
    35   14   19 ar
    36   14   15 ar
    37   15   16 ar
    38   15   43 1
    39   16   17 ar
    40   16   44 1
    41   17   22 2
    42   17   18 ar
    43   18   19 ar
    44   18   20 2
    45   19   45 1
    46   20   21 1
    47   21   22 1
@<TRIPOS>MOLECULE
ZINC36971423
   29    30     0     0     0
SMALL
USER_CHARGES

@<TRIPOS>ATOM
      1 C1          0.5929    0.1293   -0.3004 C.ar      1 <0>        -0.1007
      2 C2          1.6454    1.0258   -0.2841 C.ar      1 <0>        -0.0788
      3 C3          2.9418    0.5683   -0.1426 C.ar      1 <0>        -0.0967
      4 C4          3.1870   -0.7874   -0.0167 C.ar      1 <0>        -0.0193
      5 C5          2.1331   -1.6851   -0.0325 C.ar      1 <0>        -0.0333
      6 C6          0.8360   -1.2254   -0.1748 C.ar      1 <0>        -0.0863
      7 Cl1         2.4392   -3.3866    0.1248 Cl        1 <0>        -0.0398
      8 Cl2         4.8153   -1.3627    0.1605 Cl        1 <0>        -0.0385
      9 C7          4.0883    1.5462   -0.1260 C.3       1 <0>         0.1587
     10 N1          4.5820    1.6965    1.2451 N.pl3     1 <0>        -0.7176
     11 C8          5.6499    2.5572    1.5128 C.ar      1 <0>         0.2857
     12 C9          6.3229    3.1771    0.4675 C.ar      1 <0>        -0.1840
     13 C10         7.3778    4.0271    0.7349 C.ar      1 <0>        -0.0120
     14 C11         7.7648    4.2617    2.0428 C.ar      1 <0>        -0.0933
     15 C12         7.0966    3.6453    3.0858 C.ar      1 <0>        -0.0042
     16 C13         6.0367    2.7989    2.8245 C.ar      1 <0>        -0.1137
     17 N2          5.3179    2.1453    3.9411 N.pl3     1 <0>         0.0423
     18 O1          4.1197    1.9949    3.8830 O.2       1 <0>        -0.1725
     19 O2          5.9289    1.7619    4.9113 O.3       1 <0>        -0.1421
     20 Cl3         9.0914    5.3309    2.3753 Cl        1 <0>        -0.0458
     21 H1         -0.4202    0.4882   -0.4069 H         1 <0>         0.1455
     22 H2          1.4543    2.0843   -0.3824 H         1 <0>         0.1438
     23 H3          0.0135   -1.9251   -0.1873 H         1 <0>         0.1474
     24 H4          4.8915    1.1752   -0.7627 H         1 <0>         0.0867
     25 H5          3.7471    2.5125   -0.4973 H         1 <0>         0.0900
     26 H6          4.1677    1.1986    1.9671 H         1 <0>         0.4150
     27 H7          6.0216    2.9942   -0.5534 H         1 <0>         0.1542
     28 H8          7.9016    4.5090   -0.0774 H         1 <0>         0.1528
     29 H9          7.4009    3.8298    4.1055 H         1 <0>         0.1567
@<TRIPOS>BOND
     1    1    6 ar
     2    1    2 ar
     3    1   21 1
     4    2    3 ar
     5    2   22 1
     6    3    4 ar
     7    3    9 1
     8    4    5 ar
     9    4    8 1
    10    5    6 ar
    11    5    7 1
    12    6   23 1
    13    9   10 1
    14    9   24 1
    15    9   25 1
    16   10   11 1
    17   10   26 1
    18   11   16 ar
    19   11   12 ar
    20   12   13 ar
    21   12   27 1
    22   13   14 ar
    23   13   28 1
    24   14   15 ar
    25   14   20 1
    26   15   16 ar
    27   15   29 1
    28   16   17 1
    29   17   18 2
    30   17   19 1
@<TRIPOS>MOLECULE
ZINC41090749
   38    40     0     0     0
SMALL
USER_CHARGES

@<TRIPOS>ATOM
      1 C1         -0.0399    1.5382   -0.0074 C.3       1 <0>        -0.1435
      2 C2         -0.0040    0.0086    0.0000 C.3       1 <0>        -0.0546
      3 C3         -1.4125   -0.5269    0.0115 C.ar      1 <0>         0.3866
      4 N1         -2.0110   -0.7456    1.1686 N.ar      1 <0>        -0.5724
      5 C4         -3.2462   -1.2142    1.2456 C.ar      1 <0>         0.4805
      6 C5         -3.9579   -1.4936    0.0461 C.ar      1 <0>        -0.2437
      7 C6         -5.3046   -2.0054   -0.1371 C.2       1 <0>        -0.1240
      8 C7         -5.7710   -2.1911   -1.3810 C.2       1 <0>        -0.1337
      9 S1         -4.4110   -1.6828   -2.4159 S.3       1 <0>         0.1110
     10 C8         -3.2531   -1.2348   -1.1499 C.ar      1 <0>         0.1516
     11 N2         -2.0225   -0.7619   -1.1340 N.ar      1 <0>        -0.5111
     12 C9         -7.1227   -2.7065   -1.8031 C.3       1 <0>        -0.0730
     13 N3         -3.8379   -1.4302    2.4777 N.pl3     1 <0>        -0.6285
     14 C10        -3.0900   -1.2724    3.6508 C.ar      1 <0>         0.1400
     15 C11        -1.7096   -1.4088    3.6192 C.ar      1 <0>        -0.0826
     16 C12        -0.9732   -1.2520    4.7793 C.ar      1 <0>        -0.0482
     17 C13        -1.6102   -0.9597    5.9724 C.ar      1 <0>        -0.0883
     18 C14        -2.9855   -0.8225    6.0104 C.ar      1 <0>        -0.1749
     19 C15        -3.7294   -0.9725    4.8517 C.ar      1 <0>         0.1011
     20 O1         -5.0819   -0.8327    4.8872 O.3       1 <0>        -0.3194
     21 C16        -5.6692   -0.5250    6.1530 C.3       1 <0>         0.0276
     22 Cl1         0.7539   -1.4228    4.7386 Cl        1 <0>        -0.0627
     23 H1          0.9789    1.9255   -0.0157 H         1 <0>         0.0711
     24 H2         -0.5677    1.8849   -0.8959 H         1 <0>         0.0591
     25 H3         -0.5566    1.8938    0.8840 H         1 <0>         0.0587
     26 H4          0.5127   -0.3470   -0.8915 H         1 <0>         0.0962
     27 H5          0.5238   -0.3381    0.8885 H         1 <0>         0.0955
     28 H6         -5.9231   -2.2342    0.7181 H         1 <0>         0.1363
     29 H7         -7.8129   -1.8699   -1.9118 H         1 <0>         0.0840
     30 H8         -7.0313   -3.2282   -2.7558 H         1 <0>         0.0792
     31 H9         -7.5016   -3.3943   -1.0472 H         1 <0>         0.0847
     32 H10        -4.7708   -1.6909    2.5287 H         1 <0>         0.4276
     33 H11        -1.2105   -1.6376    2.6892 H         1 <0>         0.1677
     34 H12        -1.0316   -0.8387    6.8763 H         1 <0>         0.1382
     35 H13        -3.4796   -0.5944    6.9433 H         1 <0>         0.1424
     36 H14        -5.4381   -1.3187    6.8634 H         1 <0>         0.0590
     37 H15        -5.2674    0.4195    6.5201 H         1 <0>         0.0590
     38 H16        -6.7502   -0.4410    6.0412 H         1 <0>         0.1034
@<TRIPOS>BOND
     1    1    2 1
     2    1   23 1
     3    1   24 1
     4    1   25 1
     5    2    3 1
     6    2   26 1
     7    2   27 1
     8    3   11 ar
     9    3    4 ar
    10    4    5 ar
    11    5    6 ar
    12    5   13 1
    13    6   10 ar
    14    6    7 1
    15    7    8 2
    16    7   28 1
    17    8    9 1
    18    8   12 1
    19    9   10 1
    20   10   11 ar
    21   12   29 1
    22   12   30 1
    23   12   31 1
    24   13   14 1
    25   13   32 1
    26   14   19 ar
    27   14   15 ar
    28   15   16 ar
    29   15   33 1
    30   16   17 ar
    31   16   22 1
    32   17   18 ar
    33   17   34 1
    34   18   19 ar
    35   18   35 1
    36   19   20 1
    37   20   21 1
    38   21   36 1
    39   21   37 1
    40   21   38 1
@<TRIPOS>MOLECULE
ZINC61640656
   35    37     0     0     0
SMALL
USER_CHARGES

@<TRIPOS>ATOM
      1 C1         -0.0187    1.5258    0.0104 C.3       1 <0>        -0.1667
      2 C2          0.0021   -0.0041    0.0020 C.3       1 <0>         0.1197
      3 N1          0.6878   -0.4765   -1.2033 N.pl3     1 <0>        -0.7195
      4 C3          0.8313   -1.8407   -1.4321 C.ar      1 <0>         0.4120
      5 C4          0.3161   -2.7512   -0.5149 C.ar      1 <0>        -0.2157
      6 C5          0.4652   -4.1051   -0.7546 C.ar      1 <0>        -0.0194
      7 C6          1.1276   -4.5050   -1.9090 C.ar      1 <0>        -0.1308
      8 C7          1.6138   -3.5461   -2.7761 C.ar      1 <0>         0.1975
      9 N2          1.4520   -2.2609   -2.5232 N.ar      1 <0>        -0.5163
     10 C8          2.3335   -3.9728   -4.0295 C.3       1 <0>        -0.0690
     11 S1          1.1372   -4.1580   -5.3805 S.3       1 <0>         0.0828
     12 C9          2.1208   -4.6533   -6.7559 C.2       1 <0>         0.2201
     13 N3          3.4176   -4.8321   -6.7257 N.2       1 <0>        -0.4824
     14 C10         3.8347   -5.2116   -7.9644 C.ar      1 <0>         0.0324
     15 C11         5.0810   -5.5305   -8.5057 C.ar      1 <0>        -0.0633
     16 C12         5.1786   -5.8868   -9.8329 C.ar      1 <0>        -0.1155
     17 C13         4.0469   -5.9298  -10.6326 C.ar      1 <0>        -0.0930
     18 C14         2.8082   -5.6168  -10.1098 C.ar      1 <0>        -0.0896
     19 C15         2.6920   -5.2568   -8.7772 C.ar      1 <0>         0.0088
     20 O1          1.6486   -4.9087   -7.9893 O.3       1 <0>        -0.1919
     21 Cl1         1.3423   -6.1922   -2.2572 Cl        1 <0>        -0.0487
     22 H1          1.0039    1.9031    0.0027 H         1 <0>         0.0644
     23 H2         -0.5459    1.8868   -0.8726 H         1 <0>         0.0647
     24 H3         -0.5289    1.8773    0.9072 H         1 <0>         0.0783
     25 H4          0.5293   -0.3651    0.8851 H         1 <0>         0.0668
     26 H5         -1.0205   -0.3814    0.0098 H         1 <0>         0.0670
     27 H6          1.0417    0.1622   -1.8418 H         1 <0>         0.4087
     28 H7         -0.1931   -2.4054    0.3725 H         1 <0>         0.1448
     29 H8          0.0760   -4.8350   -0.0603 H         1 <0>         0.1503
     30 H9          3.0722   -3.2180   -4.2992 H         1 <0>         0.1232
     31 H10         2.8343   -4.9251   -3.8546 H         1 <0>         0.1233
     32 H11         5.9654   -5.4977   -7.8866 H         1 <0>         0.1371
     33 H12         6.1424   -6.1338  -10.2529 H         1 <0>         0.1396
     34 H13         4.1350   -6.2098  -11.6719 H         1 <0>         0.1429
     35 H14         1.9311   -5.6521  -10.7389 H         1 <0>         0.1374
@<TRIPOS>BOND
     1    1    2 1
     2    1   22 1
     3    1   23 1
     4    1   24 1
     5    2    3 1
     6    2   25 1
     7    2   26 1
     8    3    4 1
     9    3   27 1
    10    4    9 ar
    11    4    5 ar
    12    5    6 ar
    13    5   28 1
    14    6    7 ar
    15    6   29 1
    16    7    8 ar
    17    7   21 1
    18    8    9 ar
    19    8   10 1
    20   10   11 1
    21   10   30 1
    22   10   31 1
    23   11   12 1
    24   12   20 1
    25   12   13 2
    26   13   14 1
    27   14   19 ar
    28   14   15 ar
    29   15   16 ar
    30   15   32 1
    31   16   17 ar
    32   16   33 1
    33   17   18 ar
    34   17   34 1
    35   18   19 ar
    36   18   35 1
    37   19   20 1
@<TRIPOS>MOLECULE
ZINC04282917
   45    47     0     0     0
SMALL
USER_CHARGES
N-(p-tolylmethyleneaminocarbamoylmethyl)naphthalene-1-carboxamide
@<TRIPOS>ATOM
      1 C1         10.3870   -2.9062    0.0617 C.3       1 <0>        -0.1208
      2 C2          9.2284   -1.9426    0.0516 C.ar      1 <0>        -0.0656
      3 C3          9.4665   -0.5796    0.0374 C.ar      1 <0>        -0.1267
      4 C4          8.4109    0.3082    0.0290 C.ar      1 <0>        -0.0828
      5 C5          7.0991   -0.1716    0.0344 C.ar      1 <0>        -0.0690
      6 C6          6.8662   -1.5488    0.0537 C.ar      1 <0>        -0.0719
      7 C7          7.9315   -2.4250    0.0571 C.ar      1 <0>        -0.1271
      8 C8          5.9652    0.7715    0.0260 C.2       1 <0>         0.1205
      9 N1          4.7478    0.3224    0.0311 N.2       1 <0>        -0.2325
     10 N2          3.6707    1.2183    0.0231 N.am      1 <0>        -0.5808
     11 C9          2.4062    0.7518    0.0283 C.2       1 <0>         0.5288
     12 O1          2.2008   -0.4436    0.0400 O.2       1 <0>        -0.4986
     13 C10         1.2476    1.7155    0.0198 C.3       1 <0>         0.1073
     14 N3         -0.0111    0.9659    0.0277 N.am      1 <0>        -0.7154
     15 C11        -1.1873    1.6238    0.0165 C.2       1 <0>         0.5707
     16 O2         -1.2038    2.8396    0.0048 O.2       1 <0>        -0.5297
     17 C12        -2.4542    0.8692    0.0184 C.ar      1 <0>        -0.1302
     18 C13        -2.4473   -0.5134   -0.0934 C.ar      1 <0>        -0.0668
     19 C14        -3.6373   -1.2300   -0.0918 C.ar      1 <0>        -0.1316
     20 C15        -4.8404   -0.5994    0.0196 C.ar      1 <0>        -0.0696
     21 C16        -4.8951    0.8003    0.1356 C.ar      1 <0>        -0.0618
     22 C17        -3.6925    1.5479    0.1405 C.ar      1 <0>        -0.0109
     23 C18        -3.7489    2.9438    0.2514 C.ar      1 <0>        -0.1177
     24 C19        -4.9572    3.5637    0.3622 C.ar      1 <0>        -0.1135
     25 C20        -6.1413    2.8299    0.3620 C.ar      1 <0>        -0.1136
     26 C21        -6.1240    1.4731    0.2516 C.ar      1 <0>        -0.1092
     27 H1         10.6663   -3.1278    1.0918 H         1 <0>         0.0744
     28 H2         10.0973   -3.8281   -0.4425 H         1 <0>         0.0691
     29 H3         11.2355   -2.4597   -0.4568 H         1 <0>         0.0691
     30 H4         10.4813   -0.2100    0.0332 H         1 <0>         0.1280
     31 H5          8.5982    1.3718    0.0186 H         1 <0>         0.1292
     32 H6          5.8545   -1.9267    0.0621 H         1 <0>         0.1349
     33 H7          7.7530   -3.4901    0.0678 H         1 <0>         0.1270
     34 H8          6.1481    1.8358    0.0156 H         1 <0>         0.1231
     35 H9          3.8350    2.1742    0.0138 H         1 <0>         0.3906
     36 H10         1.2963    2.3342   -0.8763 H         1 <0>         0.1083
     37 H11         1.2974    2.3514    0.9036 H         1 <0>         0.1084
     38 H12         0.0021   -0.0040    0.0371 H         1 <0>         0.4135
     39 H13        -1.5075   -1.0380   -0.1831 H         1 <0>         0.1298
     40 H14        -3.6086   -2.3060   -0.1800 H         1 <0>         0.1329
     41 H15        -5.7534   -1.1763    0.0190 H         1 <0>         0.1333
     42 H16        -2.8387    3.5251    0.2533 H         1 <0>         0.1682
     43 H17        -4.9976    4.6393    0.4517 H         1 <0>         0.1249
     44 H18        -7.0865    3.3446    0.4510 H         1 <0>         0.1245
     45 H19        -7.0495    0.9165    0.2536 H         1 <0>         0.1294
@<TRIPOS>BOND
     1    1    2 1
     2    1   27 1
     3    1   28 1
     4    1   29 1
     5    2    7 ar
     6    2    3 ar
     7    3    4 ar
     8    3   30 1
     9    4    5 ar
    10    4   31 1
    11    5    6 ar
    12    5    8 1
    13    6    7 ar
    14    6   32 1
    15    7   33 1
    16    8    9 2
    17    8   34 1
    18    9   10 1
    19   10   11 am
    20   10   35 1
    21   11   12 2
    22   11   13 1
    23   13   14 1
    24   13   36 1
    25   13   37 1
    26   14   15 am
    27   14   38 1
    28   15   16 2
    29   15   17 1
    30   17   22 ar
    31   17   18 ar
    32   18   19 ar
    33   18   39 1
    34   19   20 ar
    35   19   40 1
    36   20   21 ar
    37   20   41 1
    38   21   26 ar
    39   21   22 ar
    40   22   23 ar
    41   23   24 ar
    42   23   42 1
    43   24   25 ar
    44   24   43 1
    45   25   26 ar
    46   25   44 1
    47   26   45 1
@<TRIPOS>MOLECULE
ZINC15796757
   49    51     0     0     0
SMALL
USER_CHARGES
N-[2-methyl-5-[[(1S,2S)-2-methylcyclohexyl]carbamoyl]phenyl]furan-2-carboxamide
@<TRIPOS>ATOM
      1 C1          9.5611    4.1999   -2.4582 C.3       1 <0>        -0.1218
      2 C2          8.1501    3.6706   -2.4579 C.ar      1 <0>        -0.0876
      3 C3          7.4742    3.5116   -1.2624 C.ar      1 <0>        -0.1048
      4 C4          6.1823    3.0272   -1.2539 C.ar      1 <0>        -0.0993
      5 C5          5.5531    2.6957   -2.4554 C.ar      1 <0>        -0.1197
      6 C6          6.2366    2.8510   -3.6610 C.ar      1 <0>        -0.0682
      7 C7          7.5328    3.3436   -3.6592 C.ar      1 <0>         0.1393
      8 N1          8.2206    3.5067   -4.8660 N.am      1 <0>        -0.6603
      9 C8          7.5359    3.6797   -6.0139 C.2       1 <0>         0.6037
     10 O1          6.3245    3.7947   -5.9885 O.2       1 <0>        -0.4885
     11 C9          8.2502    3.7295   -7.2933 C.2       1 <0>        -0.0907
     12 C10         7.6816    3.8935   -8.5241 C.2       1 <0>        -0.1055
     13 C11         8.7300    3.8845   -9.4574 C.2       1 <0>        -0.2247
     14 C12         9.8772    3.7084   -8.7652 C.2       1 <0>         0.0033
     15 O2          9.5840    3.6154   -7.4616 O.3       1 <0>        -0.1664
     16 C13         4.1689    2.1759   -2.4491 C.2       1 <0>         0.5603
     17 O3          3.6231    1.8879   -3.4963 O.2       1 <0>        -0.5276
     18 N2          3.5124    2.0214   -1.2823 N.am      1 <0>        -0.7217
     19 C14         2.1409    1.5064   -1.2760 C.3       1 <0>         0.1509
     20 H1          1.6125    1.8695   -2.1575 H         1 <0>         0.0900
     21 C15         2.1705   -0.0233   -1.2932 C.3       1 <0>        -0.1298
     22 C16         0.7382   -0.5611   -1.2867 C.3       1 <0>        -0.1176
     23 C17         0.0181   -0.0791   -0.0257 C.3       1 <0>        -0.1223
     24 C18        -0.0115    1.4506   -0.0086 C.3       1 <0>        -0.1118
     25 C19         1.4208    1.9884   -0.0151 C.3       1 <0>        -0.0979
     26 H2          1.9493    1.6253    0.8664 H         1 <0>         0.0752
     27 C20         1.3913    3.5180    0.0021 C.3       1 <0>        -0.1492
     28 H3         10.2612    3.3679   -2.3825 H         1 <0>         0.0778
     29 H4          9.7442    4.7457   -3.3838 H         1 <0>         0.0659
     30 H5          9.6984    4.8689   -1.6087 H         1 <0>         0.0780
     31 H6          7.9593    3.7671   -0.3318 H         1 <0>         0.1354
     32 H7          5.6578    2.9041   -0.3179 H         1 <0>         0.1274
     33 H8          5.7565    2.5925   -4.5932 H         1 <0>         0.1604
     34 H9          9.1905    3.4953   -4.8769 H         1 <0>         0.4176
     35 H10         6.6294    4.0101   -8.7377 H         1 <0>         0.1639
     36 H11         8.6369    3.9932  -10.5278 H         1 <0>         0.1608
     37 H12        10.8673    3.6516   -9.1927 H         1 <0>         0.2143
     38 H13         3.9480    2.2512   -0.4466 H         1 <0>         0.3981
     39 H14         2.6989   -0.3864   -0.4117 H         1 <0>         0.0635
     40 H15         2.6835   -0.3667   -2.1915 H         1 <0>         0.0682
     41 H16         0.7592   -1.6509   -1.2989 H         1 <0>         0.0652
     42 H17         0.2097   -0.1980   -2.1682 H         1 <0>         0.0649
     43 H18         0.5465   -0.4422    0.8557 H         1 <0>         0.0626
     44 H19        -1.0023   -0.4623   -0.0211 H         1 <0>         0.0647
     45 H20        -0.5399    1.8137   -0.8901 H         1 <0>         0.0660
     46 H21        -0.5245    1.7940    0.8897 H         1 <0>         0.0680
     47 H22         0.8783    3.8615    0.9004 H         1 <0>         0.0583
     48 H23         2.4117    3.9012   -0.0026 H         1 <0>         0.0552
     49 H24         0.8628    3.8811   -0.8794 H         1 <0>         0.0569
@<TRIPOS>BOND
     1    1    2 1
     2    1   28 1
     3    1   29 1
     4    1   30 1
     5    2    7 ar
     6    2    3 ar
     7    3    4 ar
     8    3   31 1
     9    4    5 ar
    10    4   32 1
    11    5    6 ar
    12    5   16 1
    13    6    7 ar
    14    6   33 1
    15    7    8 1
    16    8    9 am
    17    8   34 1
    18    9   10 2
    19    9   11 1
    20   11   15 1
    21   11   12 2
    22   12   13 1
    23   12   35 1
    24   13   14 2
    25   13   36 1
    26   14   15 1
    27   14   37 1
    28   16   17 2
    29   16   18 am
    30   18   19 1
    31   18   38 1
    32   19   20 1
    33   19   25 1
    34   19   21 1
    35   21   22 1
    36   21   39 1
    37   21   40 1
    38   22   23 1
    39   22   41 1
    40   22   42 1
    41   23   24 1
    42   23   43 1
    43   23   44 1
    44   24   25 1
    45   24   45 1
    46   24   46 1
    47   25   26 1
    48   25   27 1
    49   27   47 1
    50   27   48 1
    51   27   49 1
@<TRIPOS>MOLECULE
ZINC35590242
   51    54     0     0     0
SMALL
USER_CHARGES

@<TRIPOS>ATOM
      1 C1         -0.0184    1.5028    0.0103 C.3       1 <0>        -0.1156
      2 C2          0.0021   -0.0041    0.0020 C.ar      1 <0>        -0.0845
      3 C3          0.0057   -0.6888   -1.1991 C.ar      1 <0>        -0.1149
      4 C4          0.0245   -2.0707   -1.2067 C.ar      1 <0>        -0.1191
      5 C5          0.0400   -2.7685   -0.0132 C.ar      1 <0>        -0.1069
      6 C6          0.0373   -2.0840    1.1875 C.ar      1 <0>        -0.1032
      7 C7          0.0229   -0.7015    1.1951 C.ar      1 <0>        -0.0843
      8 C8          0.0538   -2.8445    2.4885 C.3       1 <0>         0.2533
      9 H1          0.4040   -2.1662    3.2665 H         1 <0>         0.0923
     10 C9         -1.3721   -3.2374    2.8181 C.2       1 <0>        -0.2712
     11 C10        -1.6410   -4.5496    2.9731 C.2       1 <0>         0.1650
     12 C11        -3.1161   -4.6471    3.2915 C.3       1 <0>         0.1407
     13 N1         -3.5961   -3.2572    3.2887 N.am      1 <0>        -0.6202
     14 C12        -2.5408   -2.4717    3.0073 C.2       1 <0>         0.5776
     15 O1         -2.5886   -1.2578    2.9269 O.2       1 <0>        -0.5193
     16 C13        -4.9678   -2.8109    3.5446 C.3       1 <0>         0.1491
     17 C14        -5.1485   -2.5502    5.0413 C.3       1 <0>        -0.1056
     18 C15        -6.5595   -2.0912    5.3046 C.2       1 <0>        -0.1189
     19 C16        -7.4301   -2.9799    5.6622 C.2       1 <0>        -0.1508
     20 C17        -8.8719   -2.6772    5.9477 C.3       1 <0>        -0.0909
     21 C18        -9.0605   -1.1756    6.1737 C.3       1 <0>        -0.1224
     22 C19        -8.3795   -0.4226    5.0239 C.3       1 <0>        -0.1204
     23 C20        -6.8665   -0.6313    5.1416 C.3       1 <0>        -0.0853
     24 N2         -0.6632   -5.4934    2.8375 N.am      1 <0>        -0.6328
     25 C21         0.6118   -5.2029    2.5473 C.2       1 <0>         0.7130
     26 O2          1.4136   -6.1109    2.4462 O.2       1 <0>        -0.5591
     27 N3          1.0336   -3.9368    2.3635 N.am      1 <0>        -0.7086
     28 H2          1.0042    1.8801    0.0026 H         1 <0>         0.0703
     29 H3         -0.5455    1.8639   -0.8728 H         1 <0>         0.0660
     30 H4         -0.5286    1.8543    0.9071 H         1 <0>         0.0686
     31 H5         -0.0064   -0.1437   -2.1314 H         1 <0>         0.1214
     32 H6          0.0266   -2.6056   -2.1449 H         1 <0>         0.1211
     33 H7          0.0540   -3.8484   -0.0191 H         1 <0>         0.1119
     34 H8          0.0246   -0.1666    2.1333 H         1 <0>         0.1250
     35 H9         -3.6316   -5.2277    2.5265 H         1 <0>         0.1124
     36 H10        -3.2631   -5.0969    4.2734 H         1 <0>         0.1120
     37 H11        -5.1606   -1.8926    2.9899 H         1 <0>         0.0908
     38 H12        -5.6670   -3.5830    3.2233 H         1 <0>         0.0839
     39 H13        -4.9557   -3.4685    5.5960 H         1 <0>         0.0699
     40 H14        -4.4494   -1.7781    5.3626 H         1 <0>         0.0759
     41 H15        -7.0983   -4.0029    5.7608 H         1 <0>         0.1022
     42 H16        -9.4821   -2.9948    5.1022 H         1 <0>         0.0731
     43 H17        -9.1850   -3.2190    6.8403 H         1 <0>         0.0705
     44 H18       -10.1242   -0.9379    6.1881 H         1 <0>         0.0647
     45 H19        -8.6048   -0.8875    7.1211 H         1 <0>         0.0638
     46 H20        -8.7336   -0.8130    4.0697 H         1 <0>         0.0646
     47 H21        -8.6083    0.6407    5.0958 H         1 <0>         0.0657
     48 H22        -6.4889   -0.0841    6.0054 H         1 <0>         0.0737
     49 H23        -6.3811   -0.2585    4.2398 H         1 <0>         0.0729
     50 H24        -0.9051   -6.4249    2.9583 H         1 <0>         0.4269
     51 H25         1.9618   -3.7492    2.1533 H         1 <0>         0.4360
@<TRIPOS>BOND
     1    1    2 1
     2    1   28 1
     3    1   29 1
     4    1   30 1
     5    2    7 ar
     6    2    3 ar
     7    3    4 ar
     8    3   31 1
     9    4    5 ar
    10    4   32 1
    11    5    6 ar
    12    5   33 1
    13    6    7 ar
    14    6    8 1
    15    7   34 1
    16    8    9 1
    17    8   27 1
    18    8   10 1
    19   10   14 1
    20   10   11 2
    21   11   12 1
    22   11   24 1
    23   12   13 1
    24   12   35 1
    25   12   36 1
    26   13   14 am
    27   13   16 1
    28   14   15 2
    29   16   17 1
    30   16   37 1
    31   16   38 1
    32   17   18 1
    33   17   39 1
    34   17   40 1
    35   18   23 1
    36   18   19 2
    37   19   20 1
    38   19   41 1
    39   20   21 1
    40   20   42 1
    41   20   43 1
    42   21   22 1
    43   21   44 1
    44   21   45 1
    45   22   23 1
    46   22   46 1
    47   22   47 1
    48   23   48 1
    49   23   49 1
    50   24   25 am
    51   24   50 1
    52   25   26 2
    53   25   27 am
    54   27   51 1
@<TRIPOS>MOLECULE
ZINC56789038
   39    41     0     0     0
SMALL
USER_CHARGES

@<TRIPOS>ATOM
      1 C1          0.0104    1.5074   -0.0221 C.3       1 <0>        -0.0736
      2 C2          0.0237    0.0005   -0.0220 C.2       1 <0>        -0.1307
      3 C3         -1.0216   -0.8624   -0.0156 C.2       1 <0>        -0.1650
      4 C4         -0.7691   -2.2214   -0.0177 C.2       1 <0>        -0.1319
      5 C5          0.5165   -2.6510   -0.0261 C.2       1 <0>        -0.1667
      6 S1          1.4203   -1.1115   -0.0381 S.3       1 <0>         0.0357
      7 C6          1.0455   -4.0621   -0.0299 C.3       1 <0>         0.2502
      8 H1          0.2711   -4.7415    0.3263 H         1 <0>         0.1120
      9 C7          1.4500   -4.4513   -1.4533 C.3       1 <0>        -0.1617
     10 N1          2.2133   -4.1483    0.8504 N.am      1 <0>        -0.7363
     11 C8          2.5517   -5.3279    1.4075 C.2       1 <0>         0.7083
     12 O1          1.8878   -6.3207    1.1794 O.2       1 <0>        -0.5653
     13 N2          3.6261   -5.4072    2.2174 N.am      1 <0>        -0.6858
     14 C9          3.9216   -6.6081    2.8723 C.ar      1 <0>         0.1768
     15 C10         3.6768   -7.8211    2.2406 C.ar      1 <0>        -0.1193
     16 C11         3.9668   -9.0058    2.8842 C.ar      1 <0>        -0.0635
     17 C12         4.5062   -8.9856    4.1690 C.ar      1 <0>        -0.0411
     18 C13         4.7513   -7.7677    4.8005 C.ar      1 <0>        -0.0767
     19 C14         4.4646   -6.5854    4.1510 C.ar      1 <0>        -0.1463
     20 C15         4.8187  -10.2593    4.8639 C.2       1 <0>         0.0588
     21 C16         5.3443  -10.3025    6.1272 C.2       1 <0>        -0.2780
     22 S2          5.4846  -11.9551    6.3904 S.3       1 <0>         0.4039
     23 N3          4.9094  -12.5022    4.9811 N.2       1 <0>        -0.2431
     24 N4          4.6064  -11.4444    4.3140 N.2       1 <0>        -0.2411
     25 H2          1.0347    1.8798   -0.0337 H         1 <0>         0.0735
     26 H3         -0.5167    1.8660   -0.9063 H         1 <0>         0.0832
     27 H4         -0.4966    1.8664    0.8736 H         1 <0>         0.0829
     28 H5         -2.0367   -0.4936   -0.0087 H         1 <0>         0.1361
     29 H6         -1.5838   -2.9303   -0.0124 H         1 <0>         0.1361
     30 H7          1.8326   -5.4719   -1.4561 H         1 <0>         0.0725
     31 H8          0.5811   -4.3872   -2.1083 H         1 <0>         0.0734
     32 H9          2.2244   -3.7719   -1.8095 H         1 <0>         0.0609
     33 H10         2.7429   -3.3563    1.0324 H         1 <0>         0.3979
     34 H11         4.1945   -4.6318    2.3464 H         1 <0>         0.4088
     35 H12         3.2588   -7.8363    1.2448 H         1 <0>         0.1469
     36 H13         3.7758   -9.9484    2.3930 H         1 <0>         0.1376
     37 H14         5.1689   -7.7497    5.7963 H         1 <0>         0.1303
     38 H15         4.6584   -5.6413    4.6383 H         1 <0>         0.1316
     39 H16         5.6026   -9.4852    6.7844 H         1 <0>         0.2090
@<TRIPOS>BOND
     1    1    2 1
     2    1   25 1
     3    1   26 1
     4    1   27 1
     5    2    6 1
     6    2    3 2
     7    3    4 1
     8    3   28 1
     9    4    5 2
    10    4   29 1
    11    5    6 1
    12    5    7 1
    13    7    8 1
    14    7    9 1
    15    7   10 1
    16    9   30 1
    17    9   31 1
    18    9   32 1
    19   10   11 am
    20   10   33 1
    21   11   12 2
    22   11   13 am
    23   13   14 1
    24   13   34 1
    25   14   19 ar
    26   14   15 ar
    27   15   16 ar
    28   15   35 1
    29   16   17 ar
    30   16   36 1
    31   17   18 ar
    32   17   20 1
    33   18   19 ar
    34   18   37 1
    35   19   38 1
    36   20   24 1
    37   20   21 2
    38   21   22 1
    39   21   39 1
    40   22   23 1
    41   23   24 2
@<TRIPOS>MOLECULE
ZINC62702824
   36    37     0     0     0
SMALL
USER_CHARGES

@<TRIPOS>ATOM
      1 C1         -0.4859    1.4581    0.0040 C.3       1 <0>        -0.1274
      2 C2         -0.2219   -0.0256   -0.0009 C.ar      1 <0>         0.0119
      3 C3         -0.2708   -0.7310   -1.1874 C.ar      1 <0>        -0.1972
      4 C4         -0.0270   -2.0983   -1.1911 C.ar      1 <0>         0.2780
      5 C5          0.2654   -2.7518   -0.0005 C.ar      1 <0>        -0.1248
      6 C6          0.3127   -2.0405    1.1821 C.ar      1 <0>        -0.0127
      7 C7          0.0745   -0.6781    1.1814 C.ar      1 <0>        -0.1388
      8 C8          0.1326    0.0959    2.4732 C.3       1 <0>        -0.1102
      9 N1          0.5255   -4.2088    0.0004 N.pl3     1 <0>         0.0439
     10 O1          0.1287   -4.8932    0.9147 O.2       1 <0>        -0.1525
     11 O2          1.1347   -4.7147   -0.9131 O.3       1 <0>        -0.1806
     12 N2         -0.0760   -2.8149   -2.3891 N.pl3     1 <0>        -0.7272
     13 C9         -0.2570   -2.1072   -3.6590 C.3       1 <0>         0.1641
     14 C10        -0.2754   -3.1024   -4.7905 C.ar      1 <0>        -0.1197
     15 C11         0.9055   -3.4580   -5.4161 C.ar      1 <0>        -0.0619
     16 C12         0.8917   -4.3697   -6.4539 C.ar      1 <0>        -0.1386
     17 C13        -0.3080   -4.9293   -6.8684 C.ar      1 <0>         0.1490
     18 C14        -1.4920   -4.5714   -6.2388 C.ar      1 <0>        -0.1243
     19 C15        -1.4720   -3.6625   -5.1974 C.ar      1 <0>        -0.0555
     20 Br1        -3.1300   -5.3310   -6.8008 Br        1 <0>        -0.0299
     21 O3         -0.3241   -5.8261   -7.8895 O.3       1 <0>        -0.4855
     22 H1          0.4509    1.9943   -0.1472 H         1 <0>         0.0843
     23 H2         -1.1802    1.7063   -0.7988 H         1 <0>         0.0754
     24 H3         -0.9194    1.7469    0.9615 H         1 <0>         0.0799
     25 H4         -0.4988   -0.2200   -2.1112 H         1 <0>         0.1443
     26 H5          0.5399   -2.5479    2.1080 H         1 <0>         0.1458
     27 H6         -0.8539    0.1036    2.9368 H         1 <0>         0.0740
     28 H7          0.8473   -0.3758    3.1476 H         1 <0>         0.0693
     29 H8          0.4464    1.1197    2.2695 H         1 <0>         0.0734
     30 H9          0.0097   -3.7810   -2.3802 H         1 <0>         0.4125
     31 H10        -1.2004   -1.5616   -3.6397 H         1 <0>         0.0791
     32 H11         0.5651   -1.4064   -3.8048 H         1 <0>         0.0828
     33 H12         1.8394   -3.0222   -5.0933 H         1 <0>         0.1383
     34 H13         1.8143   -4.6463   -6.9424 H         1 <0>         0.1437
     35 H14        -2.3923   -3.3864   -4.7043 H         1 <0>         0.1381
     36 H15        -0.2206   -6.7452   -7.6074 H         1 <0>         0.3990
@<TRIPOS>BOND
     1    1    2 1
     2    1   22 1
     3    1   23 1
     4    1   24 1
     5    2    7 ar
     6    2    3 ar
     7    3    4 ar
     8    3   25 1
     9    4    5 ar
    10    4   12 1
    11    5    6 ar
    12    5    9 1
    13    6    7 ar
    14    6   26 1
    15    7    8 1
    16    8   27 1
    17    8   28 1
    18    8   29 1
    19    9   10 2
    20    9   11 1
    21   12   13 1
    22   12   30 1
    23   13   14 1
    24   13   31 1
    25   13   32 1
    26   14   19 ar
    27   14   15 ar
    28   15   16 ar
    29   15   33 1
    30   16   17 ar
    31   16   34 1
    32   17   18 ar
    33   17   21 1
    34   18   19 ar
    35   18   20 1
    36   19   35 1
    37   21   36 1
@<TRIPOS>MOLECULE
ZINC00076356
   48    50     0     0     0
SMALL
USER_CHARGES
isobutyl 6-methyl-2-(p-tolyl)quinoline-4-carboxylate
@<TRIPOS>ATOM
      1 C1         -6.3547    5.9866    0.1615 C.3       1 <0>        -0.1197
      2 C2         -5.0098    5.3073    0.1312 C.ar      1 <0>        -0.0690
      3 C3         -4.9358    3.9261    0.1103 C.ar      1 <0>        -0.1268
      4 C4         -3.7071    3.2986    0.0821 C.ar      1 <0>        -0.0694
      5 C5         -2.5390    4.0594    0.0752 C.ar      1 <0>        -0.0647
      6 C6         -2.6196    5.4508    0.1026 C.ar      1 <0>        -0.0929
      7 C7         -3.8540    6.0674    0.1249 C.ar      1 <0>        -0.1238
      8 C8         -1.2156    3.3910    0.0448 C.ar      1 <0>         0.1923
      9 C9         -0.0571    4.1828    0.0385 C.ar      1 <0>        -0.0905
     10 C10         1.1874    3.5689    0.0097 C.ar      1 <0>        -0.0712
     11 C11         1.2141    2.1060   -0.0125 C.ar      1 <0>        -0.0573
     12 C12         2.4198    1.3970   -0.0420 C.ar      1 <0>        -0.1121
     13 C13         2.3993    0.0339   -0.0622 C.ar      1 <0>        -0.0707
     14 C14         1.1924   -0.6621   -0.0538 C.ar      1 <0>        -0.0983
     15 C15         0.0017   -0.0038   -0.0253 C.ar      1 <0>        -0.0843
     16 C16        -0.0172    1.4034   -0.0038 C.ar      1 <0>         0.1241
     17 N1         -1.1688    2.0760    0.0189 N.ar      1 <0>        -0.4426
     18 C17         3.6983   -0.7295   -0.0945 C.3       1 <0>        -0.1190
     19 C18         2.4353    4.3608    0.0015 C.2       1 <0>         0.5166
     20 O1          3.5103    3.8010    0.0800 O.2       1 <0>        -0.4913
     21 O2          2.3804    5.7035   -0.0930 O.3       1 <0>        -0.3473
     22 C19         3.6453    6.4165   -0.0952 C.3       1 <0>         0.0712
     23 C20         3.3833    7.9197   -0.2084 C.3       1 <0>        -0.0958
     24 C21         4.7060    8.6786   -0.0855 C.3       1 <0>        -0.1477
     25 C22         2.7441    8.2252   -1.5645 C.3       1 <0>        -0.1499
     26 H1         -6.6632    6.1357    1.1962 H         1 <0>         0.0738
     27 H2         -6.2854    6.9521   -0.3397 H         1 <0>         0.0686
     28 H3         -7.0881    5.3634   -0.3502 H         1 <0>         0.0687
     29 H4         -5.8415    3.3378    0.1157 H         1 <0>         0.1270
     30 H5         -3.6505    2.2202    0.0658 H         1 <0>         0.1362
     31 H6         -1.7178    6.0451    0.1021 H         1 <0>         0.1284
     32 H7         -3.9177    7.1454    0.1416 H         1 <0>         0.1278
     33 H8         -0.1331    5.2600    0.0561 H         1 <0>         0.1564
     34 H9          3.3612    1.9263   -0.0488 H         1 <0>         0.1612
     35 H10         1.2019   -1.7420   -0.0706 H         1 <0>         0.1344
     36 H11        -0.9248   -0.5587   -0.0195 H         1 <0>         0.1415
     37 H12         3.9952   -0.8977   -1.1297 H         1 <0>         0.0759
     38 H13         4.4706   -0.1542    0.4161 H         1 <0>         0.0714
     39 H14         3.5686   -1.6886    0.4068 H         1 <0>         0.0710
     40 H15         4.1804    6.2098    0.8316 H         1 <0>         0.0746
     41 H16         4.2463    6.0876   -0.9429 H         1 <0>         0.0748
     42 H17         2.7096    8.2322    0.5894 H         1 <0>         0.0838
     43 H18         5.3797    8.3661   -0.8833 H         1 <0>         0.0596
     44 H19         4.5194    9.7495   -0.1662 H         1 <0>         0.0678
     45 H20         5.1614    8.4610    0.8806 H         1 <0>         0.0594
     46 H21         1.8017    7.6845   -1.6521 H         1 <0>         0.0618
     47 H22         2.5574    9.2960   -1.6452 H         1 <0>         0.0602
     48 H23         3.4178    7.9127   -2.3624 H         1 <0>         0.0554
@<TRIPOS>BOND
     1    1    2 1
     2    1   26 1
     3    1   27 1
     4    1   28 1
     5    2    7 ar
     6    2    3 ar
     7    3    4 ar
     8    3   29 1
     9    4    5 ar
    10    4   30 1
    11    5    6 ar
    12    5    8 1
    13    6    7 ar
    14    6   31 1
    15    7   32 1
    16    8   17 ar
    17    8    9 ar
    18    9   10 ar
    19    9   33 1
    20   10   11 ar
    21   10   19 1
    22   11   16 ar
    23   11   12 ar
    24   12   13 ar
    25   12   34 1
    26   13   14 ar
    27   13   18 1
    28   14   15 ar
    29   14   35 1
    30   15   16 ar
    31   15   36 1
    32   16   17 ar
    33   18   37 1
    34   18   38 1
    35   18   39 1
    36   19   20 2
    37   19   21 1
    38   21   22 1
    39   22   23 1
    40   22   40 1
    41   22   41 1
    42   23   24 1
    43   23   25 1
    44   23   42 1
    45   24   43 1
    46   24   44 1
    47   24   45 1
    48   25   46 1
    49   25   47 1
    50   25   48 1
@<TRIPOS>MOLECULE
ZINC03128711
   43    45     0     0     0
SMALL
USER_CHARGES
4-phenyl-5-[(4-tert-butylphenyl)methylsulfanyl]thiadiazole
@<TRIPOS>ATOM
      1 C1          3.7917   -1.5797   -1.2925 C.3       1 <0>        -0.1399
      2 C2          3.7112   -0.7071   -0.0382 C.3       1 <0>        -0.0329
      3 C3          4.8604    0.3029   -0.0449 C.3       1 <0>        -0.1466
      4 C4          3.8166   -1.5914    1.2059 C.3       1 <0>        -0.1399
      5 C5          2.3960    0.0285   -0.0217 C.ar      1 <0>        -0.0548
      6 C6          1.2084   -0.6789   -0.0132 C.ar      1 <0>        -0.1142
      7 C7          0.0021   -0.0041    0.0020 C.ar      1 <0>        -0.0949
      8 C8         -0.0167    1.3781    0.0096 C.ar      1 <0>        -0.0912
      9 C9          1.1709    2.0855    0.0021 C.ar      1 <0>        -0.0947
     10 C10         2.3773    1.4107   -0.0145 C.ar      1 <0>        -0.1198
     11 C11        -1.3319    2.1138    0.0199 C.3       1 <0>        -0.1043
     12 S1         -1.8503    2.3991    1.7304 S.3       1 <0>         0.0839
     13 C12        -3.3684    3.2491    1.4523 C.2       1 <0>        -0.1964
     14 C13        -4.2800    3.7565    2.3730 C.2       1 <0>         0.0579
     15 N1         -5.3461    4.3550    1.8764 N.2       1 <0>        -0.2135
     16 N2         -5.5158    4.4543    0.6012 N.2       1 <0>        -0.1796
     17 S2         -4.1294    3.6878   -0.0444 S.3       1 <0>         0.2332
     18 C14        -4.0649    3.6317    3.8340 C.ar      1 <0>        -0.0240
     19 C15        -3.4562    2.4913    4.3570 C.ar      1 <0>        -0.1001
     20 C16        -3.2546    2.3827    5.7177 C.ar      1 <0>        -0.1150
     21 C17        -3.6642    3.3979    6.5636 C.ar      1 <0>        -0.1071
     22 C18        -4.2729    4.5295    6.0511 C.ar      1 <0>        -0.1185
     23 C19        -4.4755    4.6516    4.6916 C.ar      1 <0>        -0.0838
     24 H1          3.7166   -0.9497   -2.1788 H         1 <0>         0.0570
     25 H2          4.7429   -2.1118   -1.3044 H         1 <0>         0.0608
     26 H3          2.9729   -2.2992   -1.2877 H         1 <0>         0.0576
     27 H4          4.8031    0.9245    0.8486 H         1 <0>         0.0597
     28 H5          5.8117   -0.2292   -0.0569 H         1 <0>         0.0605
     29 H6          4.7853    0.9328   -0.9313 H         1 <0>         0.0594
     30 H7          2.9978   -2.3109    1.2106 H         1 <0>         0.0577
     31 H8          4.7678   -2.1235    1.1939 H         1 <0>         0.0608
     32 H9          3.7592   -0.9698    2.0994 H         1 <0>         0.0574
     33 H10         1.2231   -1.7588   -0.0188 H         1 <0>         0.1259
     34 H11        -0.9258   -0.5567    0.0083 H         1 <0>         0.1261
     35 H12         1.1563    3.1654    0.0077 H         1 <0>         0.1259
     36 H13         3.3051    1.9634   -0.0208 H         1 <0>         0.1315
     37 H14        -1.2169    3.0707   -0.4893 H         1 <0>         0.1065
     38 H15        -2.0859    1.5173   -0.4937 H         1 <0>         0.1072
     39 H16        -3.1401    1.6962    3.6980 H         1 <0>         0.1290
     40 H17        -2.7796    1.5018    6.1236 H         1 <0>         0.1291
     41 H18        -3.5077    3.3068    7.6283 H         1 <0>         0.1267
     42 H19        -4.5905    5.3188    6.7163 H         1 <0>         0.1285
     43 H20        -4.9509    5.5355    4.2926 H         1 <0>         0.1288
@<TRIPOS>BOND
     1    1    2 1
     2    1   24 1
     3    1   25 1
     4    1   26 1
     5    2    3 1
     6    2    4 1
     7    2    5 1
     8    3   27 1
     9    3   28 1
    10    3   29 1
    11    4   30 1
    12    4   31 1
    13    4   32 1
    14    5   10 ar
    15    5    6 ar
    16    6    7 ar
    17    6   33 1
    18    7    8 ar
    19    7   34 1
    20    8    9 ar
    21    8   11 1
    22    9   10 ar
    23    9   35 1
    24   10   36 1
    25   11   12 1
    26   11   37 1
    27   11   38 1
    28   12   13 1
    29   13   17 1
    30   13   14 2
    31   14   15 1
    32   14   18 1
    33   15   16 2
    34   16   17 1
    35   18   23 ar
    36   18   19 ar
    37   19   20 ar
    38   19   39 1
    39   20   21 ar
    40   20   40 1
    41   21   22 ar
    42   21   41 1
    43   22   23 ar
    44   22   42 1
    45   23   43 1
@<TRIPOS>MOLECULE
ZINC28067861
   28    30     0     0     0
SMALL
USER_CHARGES
[2-(3-thienyl)thiazol-4-yl]methyl 5-chlorothiophene-2-carboxylate
@<TRIPOS>ATOM
      1 C1         -0.4996    1.4144   -4.8982 C.2       1 <0>        -0.0467
      2 C2         -1.2974    1.9613   -5.8703 C.2       1 <0>        -0.1662
      3 C3         -2.3776    2.7037   -5.5028 C.2       1 <0>        -0.1297
      4 S1         -2.3197    2.6565   -3.7708 S.3       1 <0>         0.2415
      5 C4         -0.8531    1.6588   -3.5789 C.2       1 <0>        -0.2320
      6 C5         -0.1977    1.2101   -2.3506 C.2       1 <0>         0.5612
      7 O1          0.8036    0.5222   -2.4119 O.2       1 <0>        -0.4818
      8 O2         -0.7038    1.5592   -1.1497 O.3       1 <0>        -0.3462
      9 C6         -0.0127    1.0858    0.0080 C.3       1 <0>         0.1423
     10 C7         -0.7181    1.5718    1.2479 C.2       1 <0>         0.0501
     11 C8         -1.8306    2.3422    1.1391 C.2       1 <0>        -0.1748
     12 S2         -2.2202    2.6064    2.8644 S.3       1 <0>         0.0211
     13 C9         -0.8559    1.6704    3.5420 C.2       1 <0>         0.1838
     14 N1         -0.2539    1.2549    2.4359 N.2       1 <0>        -0.4965
     15 C10        -0.4960    1.4256    4.9544 C.2       1 <0>        -0.0605
     16 C11        -1.2646    1.9553    5.9889 C.2       1 <0>        -0.1451
     17 C12        -0.9033    1.7087    7.2672 C.2       1 <0>        -0.1640
     18 S3          0.5576    0.7043    7.0625 S.3       1 <0>         0.0811
     19 C13         0.5977    0.6678    5.2784 C.2       1 <0>        -0.1130
     20 Cl1        -3.5367    3.4987   -6.5217 Cl        1 <0>         0.0330
     21 H1          0.3664    0.8197   -5.1486 H         1 <0>         0.1605
     22 H2         -1.0712    1.8052   -6.9148 H         1 <0>         0.1545
     23 H3          0.0022   -0.0141    0.0019 H         1 <0>         0.0949
     24 H4          1.0193    1.4665    0.0002 H         1 <0>         0.0949
     25 H5         -2.3403    2.6962    0.2552 H         1 <0>         0.2047
     26 H6         -2.1365    2.5547    5.7720 H         1 <0>         0.1398
     27 H7         -1.3780    2.0356    8.1805 H         1 <0>         0.1949
     28 H8          1.3024    0.1762    4.6240 H         1 <0>         0.1982
@<TRIPOS>BOND
     1    1    5 2
     2    1    2 1
     3    1   21 1
     4    2    3 2
     5    2   22 1
     6    3    4 1
     7    3   20 1
     8    4    5 1
     9    5    6 1
    10    6    7 2
    11    6    8 1
    12    8    9 1
    13    9   10 1
    14    9   23 1
    15    9   24 1
    16   10   14 1
    17   10   11 2
    18   11   12 1
    19   11   25 1
    20   12   13 1
    21   13   14 2
    22   13   15 1
    23   15   19 2
    24   15   16 1
    25   16   17 2
    26   16   26 1
    27   17   18 1
    28   17   27 1
    29   18   19 1
    30   19   28 1
@<TRIPOS>MOLECULE
ZINC37347731
   40    41     0     0     0
SMALL
USER_CHARGES

@<TRIPOS>ATOM
      1 C1          0.2137    1.6575   -0.1686 C.3       1 <0>        -0.1548
      2 C2          0.0080    0.1437   -0.0833 C.3       1 <0>        -0.1132
      3 C3          0.7373   -0.5362   -1.2438 C.3       1 <0>        -0.0506
      4 H1          0.4017   -0.1045   -2.1867 H         1 <0>         0.0884
      5 C4          2.2450   -0.3235   -1.0934 C.3       1 <0>        -0.1436
      6 C5          0.4346   -2.0125   -1.2313 C.ar      1 <0>        -0.1003
      7 C6          0.7662   -2.7770   -0.1293 C.ar      1 <0>        -0.0775
      8 C7          0.4893   -4.1313   -0.1174 C.ar      1 <0>        -0.1523
      9 C8         -0.1205   -4.7243   -1.2078 C.ar      1 <0>        -0.0840
     10 C9         -0.4544   -3.9644   -2.3117 C.ar      1 <0>        -0.2096
     11 C10        -0.1822   -2.6038   -2.3240 C.ar      1 <0>         0.1267
     12 O1         -0.5148   -1.8529   -3.4067 O.3       1 <0>        -0.2848
     13 C11        -1.0325   -2.5470   -4.5434 C.3       1 <0>         0.0421
     14 H2         -0.5397   -3.5151   -4.6334 H         1 <0>         0.0999
     15 C12        -2.5385   -2.7553   -4.3716 C.3       1 <0>        -0.1774
     16 C13        -0.7763   -1.7355   -5.7872 C.2       1 <0>         0.4405
     17 O2         -0.4611   -0.5661   -5.6951 O.2       1 <0>        -0.4135
     18 C14        -0.9026   -2.3340   -7.0584 C.2       1 <0>        -0.2873
     19 C15        -0.7076   -1.7709   -8.3169 C.2       1 <0>        -0.0395
     20 C16        -0.9073   -2.6112   -9.3813 C.2       1 <0>        -0.1764
     21 C17        -1.2716   -3.9005   -9.1468 C.2       1 <0>        -0.1567
     22 S1         -1.3458   -4.0105   -7.4721 S.3       1 <0>         0.2755
     23 Cl1        -1.5814   -5.1495  -10.3120 Cl        1 <0>         0.0321
     24 H3          1.2785    1.8833   -0.1108 H         1 <0>         0.0570
     25 H4         -0.1850    2.0256   -1.1139 H         1 <0>         0.0551
     26 H5         -0.3059    2.1419    0.6581 H         1 <0>         0.0536
     27 H6          0.4068   -0.2244    0.8620 H         1 <0>         0.0615
     28 H7         -1.0567   -0.0821   -0.1411 H         1 <0>         0.0611
     29 H8          2.7645   -0.8079   -1.9201 H         1 <0>         0.0535
     30 H9          2.4639    0.7443   -1.1024 H         1 <0>         0.0611
     31 H10         2.5806   -0.7552   -0.1505 H         1 <0>         0.0547
     32 H11         1.2425   -2.3162    0.7235 H         1 <0>         0.1287
     33 H12         0.7499   -4.7273    0.7447 H         1 <0>         0.1241
     34 H13        -0.3355   -5.7827   -1.1962 H         1 <0>         0.1251
     35 H14        -0.9305   -4.4280   -3.1630 H         1 <0>         0.1283
     36 H15        -2.9333   -3.2848   -5.2387 H         1 <0>         0.0786
     37 H16        -2.7238   -3.3423   -3.4720 H         1 <0>         0.0826
     38 H17        -3.0312   -1.7872   -4.2816 H         1 <0>         0.0790
     39 H18        -0.4181   -0.7385   -8.4461 H         1 <0>         0.1609
     40 H19        -0.7775   -2.2542  -10.3923 H         1 <0>         0.1516
@<TRIPOS>BOND
     1    1    2 1
     2    1   24 1
     3    1   25 1
     4    1   26 1
     5    2    3 1
     6    2   27 1
     7    2   28 1
     8    3    4 1
     9    3    5 1
    10    3    6 1
    11    5   29 1
    12    5   30 1
    13    5   31 1
    14    6   11 ar
    15    6    7 ar
    16    7    8 ar
    17    7   32 1
    18    8    9 ar
    19    8   33 1
    20    9   10 ar
    21    9   34 1
    22   10   11 ar
    23   10   35 1
    24   11   12 1
    25   12   13 1
    26   13   14 1
    27   13   15 1
    28   13   16 1
    29   15   36 1
    30   15   37 1
    31   15   38 1
    32   16   17 2
    33   16   18 1
    34   18   22 1
    35   18   19 2
    36   19   20 1
    37   19   39 1
    38   20   21 2
    39   20   40 1
    40   21   22 1
    41   21   23 1
@<TRIPOS>MOLECULE
ZINC49601258
   34    35     0     0     0
SMALL
USER_CHARGES

@<TRIPOS>ATOM
      1 C1         -0.0173    1.4248    0.0099 C.3       1 <0>         0.0261
      2 O1          0.0021   -0.0041    0.0020 O.3       1 <0>        -0.3075
      3 C2          0.6063   -0.6076   -1.0565 C.ar      1 <0>         0.1455
      4 C3          1.1727    0.1583   -2.0618 C.ar      1 <0>        -0.1913
      5 C4          1.7872   -0.4567   -3.1374 C.ar      1 <0>        -0.0841
      6 C5          1.8380   -1.8363   -3.2136 C.ar      1 <0>        -0.1371
      7 C6          1.2753   -2.6083   -2.2148 C.ar      1 <0>        -0.0978
      8 C7          0.6620   -1.9983   -1.1294 C.ar      1 <0>        -0.1226
      9 S1         -0.0506   -2.9793    0.1490 S.3       1 <0>        -0.0788
     10 C8          0.2658   -4.6856   -0.3791 C.3       1 <0>        -0.0700
     11 C9         -0.3006   -5.6402    0.6402 C.ar      1 <0>        -0.1098
     12 C10         0.4812   -6.0620    1.6999 C.ar      1 <0>        -0.0426
     13 C11        -0.0351   -6.9374    2.6356 C.ar      1 <0>        -0.2024
     14 C12        -1.3394   -7.3932    2.5121 C.ar      1 <0>         0.1634
     15 C13        -2.1226   -6.9682    1.4480 C.ar      1 <0>        -0.1269
     16 C14        -1.6027   -6.0881    0.5173 C.ar      1 <0>        -0.0316
     17 Br1        -3.9010   -7.5872    1.2751 Br        1 <0>        -0.0309
     18 O2         -1.8494   -8.2548    3.4313 O.3       1 <0>        -0.3013
     19 C15        -0.9861   -8.6498    4.4993 C.3       1 <0>         0.0234
     20 H1          1.0053    1.8021    0.0021 H         1 <0>         0.0568
     21 H2         -0.5445    1.7859   -0.8732 H         1 <0>         0.0570
     22 H3         -0.5275    1.7763    0.9067 H         1 <0>         0.1030
     23 H4          1.1342    1.2361   -2.0059 H         1 <0>         0.1336
     24 H5          2.2282    0.1424   -3.9202 H         1 <0>         0.1285
     25 H6          2.3184   -2.3119   -4.0559 H         1 <0>         0.1282
     26 H7          1.3161   -3.6857   -2.2771 H         1 <0>         0.1292
     27 H8         -0.2090   -4.8611   -1.3445 H         1 <0>         0.0979
     28 H9          1.3404   -4.8450   -0.4684 H         1 <0>         0.0984
     29 H10         1.4967   -5.7071    1.7959 H         1 <0>         0.1358
     30 H11         0.5765   -7.2669    3.4625 H         1 <0>         0.1408
     31 H12        -2.2127   -5.7537   -0.3088 H         1 <0>         0.1422
     32 H13        -0.6786   -7.7688    5.0627 H         1 <0>         0.0597
     33 H14        -1.5157   -9.3367    5.1595 H         1 <0>         0.1059
     34 H15        -0.1055   -9.1453    4.0904 H         1 <0>         0.0593
@<TRIPOS>BOND
     1    1    2 1
     2    1   20 1
     3    1   21 1
     4    1   22 1
     5    2    3 1
     6    3    8 ar
     7    3    4 ar
     8    4    5 ar
     9    4   23 1
    10    5    6 ar
    11    5   24 1
    12    6    7 ar
    13    6   25 1
    14    7    8 ar
    15    7   26 1
    16    8    9 1
    17    9   10 1
    18   10   11 1
    19   10   27 1
    20   10   28 1
    21   11   16 ar
    22   11   12 ar
    23   12   13 ar
    24   12   29 1
    25   13   14 ar
    26   13   30 1
    27   14   15 ar
    28   14   18 1
    29   15   16 ar
    30   15   17 1
    31   16   31 1
    32   18   19 1
    33   19   32 1
    34   19   33 1
    35   19   34 1
@<TRIPOS>MOLECULE
ZINC01987080
   40    42     0     0     0
SMALL
USER_CHARGES
methyl-N-sec-butyl-BLAHamine
@<TRIPOS>ATOM
      1 C1          6.2239   -2.1421   -0.8090 C.3       1 <0>        -0.1541
      2 C2          6.6427   -1.8557    0.6344 C.3       1 <0>        -0.1339
      3 C3          6.6515   -0.3444    0.8727 C.3       1 <0>         0.1415
      4 H1          7.2897    0.1365    0.1314 H         1 <0>         0.0972
      5 C4          7.1891   -0.0523    2.2750 C.3       1 <0>        -0.1640
      6 N1          5.2874    0.1766    0.7543 N.pl3     1 <0>        -0.6943
      7 C5          5.0800    1.5011    0.4137 C.ar      1 <0>         0.4934
      8 C6          3.7804    2.0852    0.4025 C.ar      1 <0>        -0.2487
      9 C7          2.5223    1.4329    0.7255 C.2       1 <0>        -0.0814
     10 C8          1.4065    2.1927    0.6434 C.2       1 <0>        -0.1524
     11 S1          1.9703    3.7988    0.1387 S.3       1 <0>         0.1117
     12 C9          3.6965    3.4523    0.0366 C.ar      1 <0>         0.1359
     13 N2          4.7464    4.1821   -0.2840 N.ar      1 <0>        -0.5031
     14 C10         5.9276    3.5767   -0.2534 C.ar      1 <0>         0.3552
     15 N3          6.0824    2.3099    0.0763 N.ar      1 <0>        -0.5930
     16 C11        -0.0026    1.7676    0.9208 C.3       1 <0>        -0.0358
     17 C12        -0.0501    0.2335    0.9579 C.3       1 <0>        -0.0860
     18 H2          0.0657   -0.1606   -0.0518 H         1 <0>         0.0773
     19 C13         1.0954   -0.2704    1.8408 C.3       1 <0>        -0.1144
     20 C14         2.4332   -0.0335    1.1401 C.3       1 <0>        -0.0703
     21 C15        -1.3898   -0.2248    1.5375 C.3       1 <0>        -0.1479
     22 H3          5.2256   -1.7409   -0.9841 H         1 <0>         0.0519
     23 H4          6.9300   -1.6706   -1.4925 H         1 <0>         0.0578
     24 H5          6.2176   -3.2188   -0.9787 H         1 <0>         0.0588
     25 H6          7.6409   -2.2570    0.8095 H         1 <0>         0.0836
     26 H7          5.9366   -2.3272    1.3180 H         1 <0>         0.0670
     27 H8          6.5509   -0.5332    3.0163 H         1 <0>         0.0552
     28 H9          8.2040   -0.4399    2.3630 H         1 <0>         0.0693
     29 H10         7.1954    1.0244    2.4447 H         1 <0>         0.0604
     30 H11         4.5296   -0.4073    0.9148 H         1 <0>         0.4122
     31 H12         6.8052    4.1506   -0.5118 H         1 <0>         0.2019
     32 H13        -0.6581    2.1353    0.1314 H         1 <0>         0.0852
     33 H14        -0.3231    2.1673    1.8828 H         1 <0>         0.0874
     34 H15         1.0838    0.2654    2.7900 H         1 <0>         0.0697
     35 H16         0.9675   -1.3368    2.0264 H         1 <0>         0.0740
     36 H17         3.2495   -0.2701    1.8224 H         1 <0>         0.0749
     37 H18         2.5000   -0.6688    0.2569 H         1 <0>         0.0809
     38 H19        -2.2021    0.1476    0.9134 H         1 <0>         0.0593
     39 H20        -1.4211   -1.3141    1.5628 H         1 <0>         0.0596
     40 H21        -1.5005    0.1654    2.5492 H         1 <0>         0.0580
@<TRIPOS>BOND
     1    1    2 1
     2    1   22 1
     3    1   23 1
     4    1   24 1
     5    2    3 1
     6    2   25 1
     7    2   26 1
     8    3    4 1
     9    3    5 1
    10    3    6 1
    11    5   27 1
    12    5   28 1
    13    5   29 1
    14    6    7 1
    15    6   30 1
    16    7   15 ar
    17    7    8 ar
    18    8   12 ar
    19    8    9 1
    20    9   20 1
    21    9   10 2
    22   10   11 1
    23   10   16 1
    24   11   12 1
    25   12   13 ar
    26   13   14 ar
    27   14   15 ar
    28   14   31 1
    29   16   17 1
    30   16   32 1
    31   16   33 1
    32   17   18 1
    33   17   19 1
    34   17   21 1
    35   19   20 1
    36   19   34 1
    37   19   35 1
    38   20   36 1
    39   20   37 1
    40   21   38 1
    41   21   39 1
    42   21   40 1
@<TRIPOS>MOLECULE
ZINC36922773
   35    37     0     0     0
SMALL
USER_CHARGES

@<TRIPOS>ATOM
      1 C1          4.5851   -1.1575    1.8762 C.3       1 <0>        -0.1084
      2 C2          3.4046   -1.9278    1.3433 C.ar      1 <0>        -0.0503
      3 C3          2.7774   -1.5120    0.2079 C.ar      1 <0>        -0.0950
      4 C4          1.6853   -2.2042   -0.3061 C.ar      1 <0>        -0.0458
      5 C5          1.2088   -3.3351    0.3265 C.ar      1 <0>         0.1964
      6 C6          1.8406   -3.7864    1.5037 C.ar      1 <0>        -0.1014
      7 C7          2.9559   -3.0772    2.0148 C.ar      1 <0>         0.1355
      8 N1          3.5617   -3.5048    3.1281 N.ar      1 <0>        -0.4708
      9 C8          3.1485   -4.5766    3.7602 C.ar      1 <0>         0.1366
     10 C9          2.0627   -5.3213    3.3069 C.ar      1 <0>        -0.1783
     11 C10         1.3910   -4.9321    2.1819 C.ar      1 <0>        -0.0405
     12 N2          0.1145   -4.0232   -0.1926 N.pl3     1 <0>        -0.7734
     13 C11         0.2805   -4.8851   -1.3656 C.3       1 <0>         0.2501
     14 H1          1.0823   -4.4950   -1.9926 H         1 <0>         0.1012
     15 C12        -1.0236   -4.9148   -2.1652 C.3       1 <0>        -0.1584
     16 C13         0.6271   -6.2816   -0.9178 C.2       1 <0>        -0.0242
     17 C14         1.5264   -7.0943   -1.5011 C.2       1 <0>        -0.2090
     18 C15         1.5318   -8.2983   -0.7600 C.2       1 <0>        -0.2097
     19 C16         0.6354   -8.1493    0.2319 C.2       1 <0>        -0.0468
     20 O1          0.0948   -6.9238    0.1348 O.3       1 <0>        -0.1687
     21 Cl1         0.9146   -1.6403   -1.7558 Cl        1 <0>        -0.0563
     22 H2          5.5028   -1.5500    1.4381 H         1 <0>         0.0747
     23 H3          4.4795   -0.1044    1.6155 H         1 <0>         0.0684
     24 H4          4.6270   -1.2610    2.9605 H         1 <0>         0.0809
     25 H5          3.1338   -0.6292   -0.3021 H         1 <0>         0.1411
     26 H6          3.6641   -4.8904    4.6558 H         1 <0>         0.1612
     27 H7          1.7456   -6.1998    3.8492 H         1 <0>         0.1376
     28 H8          0.5466   -5.4976    1.8163 H         1 <0>         0.1448
     29 H9         -0.7574   -3.9317    0.2225 H         1 <0>         0.4039
     30 H10        -1.8110   -5.3637   -1.5596 H         1 <0>         0.0645
     31 H11        -1.3078   -3.8977   -2.4348 H         1 <0>         0.0742
     32 H12        -0.8811   -5.5044   -3.0709 H         1 <0>         0.0736
     33 H13         2.1284   -6.8703   -2.3693 H         1 <0>         0.1450
     34 H14         2.1388   -9.1704   -0.9533 H         1 <0>         0.1466
     35 H15         0.3944   -8.8884    0.9816 H         1 <0>         0.2007
@<TRIPOS>BOND
     1    1    2 1
     2    1   22 1
     3    1   23 1
     4    1   24 1
     5    2    7 ar
     6    2    3 ar
     7    3    4 ar
     8    3   25 1
     9    4    5 ar
    10    4   21 1
    11    5    6 ar
    12    5   12 1
    13    6   11 ar
    14    6    7 ar
    15    7    8 ar
    16    8    9 ar
    17    9   10 ar
    18    9   26 1
    19   10   11 ar
    20   10   27 1
    21   11   28 1
    22   12   13 1
    23   12   29 1
    24   13   14 1
    25   13   15 1
    26   13   16 1
    27   15   30 1
    28   15   31 1
    29   15   32 1
    30   16   20 1
    31   16   17 2
    32   17   18 1
    33   17   33 1
    34   18   19 2
    35   18   34 1
    36   19   20 1
    37   19   35 1
@<TRIPOS>MOLECULE
ZINC37312945
   46    48     0     0     0
SMALL
USER_CHARGES

@<TRIPOS>ATOM
      1 C1         -0.0173    1.4248    0.0099 C.3       1 <0>         0.0292
      2 O1          0.0021   -0.0041    0.0020 O.3       1 <0>        -0.3767
      3 C2          0.6518   -0.5703   -1.1379 C.3       1 <0>         0.0815
      4 H1          1.4313    0.1075   -1.4857 H         1 <0>         0.0708
      5 C3         -0.3723   -0.7855   -2.2540 C.3       1 <0>        -0.1405
      6 C4          0.3234   -1.3917   -3.4745 C.3       1 <0>        -0.1183
      7 C5          0.9489   -2.7342   -3.0905 C.3       1 <0>        -0.1176
      8 C6          1.9730   -2.5189   -1.9743 C.3       1 <0>        -0.1351
      9 C7          1.2773   -1.9127   -0.7538 C.3       1 <0>         0.1631
     10 H2          2.0069   -1.7594    0.0414 H         1 <0>         0.0809
     11 N1          0.2296   -2.8237   -0.2863 N.pl3     1 <0>        -0.7365
     12 C8          0.5507   -3.8716    0.5848 C.ar      1 <0>         0.1709
     13 C9          1.8612   -4.0440    1.0102 C.ar      1 <0>        -0.1504
     14 C10         2.1780   -5.0779    1.8691 C.ar      1 <0>        -0.1459
     15 C11         1.1859   -5.9448    2.3078 C.ar      1 <0>         0.1804
     16 C12        -0.1247   -5.7721    1.8828 C.ar      1 <0>        -0.1452
     17 C13        -0.4424   -4.7351    1.0280 C.ar      1 <0>        -0.1472
     18 N2          1.5072   -6.9932    3.1782 N.pl3     1 <0>        -0.6437
     19 C14         2.8465   -7.2863    3.7090 C.3       1 <0>         0.1175
     20 C15         2.7220   -8.5405    4.5996 C.3       1 <0>        -0.1327
     21 C16         1.4298   -9.2162    4.0695 C.3       1 <0>        -0.1342
     22 C17         0.5573   -7.9823    3.7194 C.3       1 <0>         0.1155
     23 H3          1.0053    1.8021    0.0021 H         1 <0>         0.0414
     24 H4         -0.5445    1.7859   -0.8732 H         1 <0>         0.0406
     25 H5         -0.5275    1.7763    0.9067 H         1 <0>         0.0862
     26 H6         -1.1518   -1.4633   -1.9062 H         1 <0>         0.0698
     27 H7         -0.8179    0.1709   -2.5276 H         1 <0>         0.0655
     28 H8         -0.4062   -1.5450   -4.2697 H         1 <0>         0.0663
     29 H9          1.1029   -0.7139   -3.8223 H         1 <0>         0.0628
     30 H10         0.1694   -3.4120   -2.7426 H         1 <0>         0.0670
     31 H11         1.4445   -3.1660   -3.9599 H         1 <0>         0.0629
     32 H12         2.4186   -3.4753   -1.7007 H         1 <0>         0.0734
     33 H13         2.7525   -1.8411   -2.3221 H         1 <0>         0.0685
     34 H14        -0.6866   -2.7009   -0.5803 H         1 <0>         0.3966
     35 H15         2.6328   -3.3697    0.6690 H         1 <0>         0.1183
     36 H16         3.1974   -5.2124    2.1994 H         1 <0>         0.1152
     37 H17        -0.8963   -6.4464    2.2239 H         1 <0>         0.1163
     38 H18        -1.4625   -4.5983    0.7006 H         1 <0>         0.1169
     39 H19         3.5361   -7.4818    2.8878 H         1 <0>         0.0563
     40 H20         3.2026   -6.4442    4.3024 H         1 <0>         0.0561
     41 H21         3.5827   -9.1957    4.4655 H         1 <0>         0.0798
     42 H22         2.6089   -8.2601    5.6468 H         1 <0>         0.0746
     43 H23         1.6378   -9.8160    3.1835 H         1 <0>         0.0747
     44 H24         0.9577   -9.8189    4.8454 H         1 <0>         0.0810
     45 H25         0.0717   -7.5920    4.6138 H         1 <0>         0.0569
     46 H26        -0.1863   -8.2452    2.9670 H         1 <0>         0.0673
@<TRIPOS>BOND
     1    1    2 1
     2    1   23 1
     3    1   24 1
     4    1   25 1
     5    2    3 1
     6    3    4 1
     7    3    9 1
     8    3    5 1
     9    5    6 1
    10    5   26 1
    11    5   27 1
    12    6    7 1
    13    6   28 1
    14    6   29 1
    15    7    8 1
    16    7   30 1
    17    7   31 1
    18    8    9 1
    19    8   32 1
    20    8   33 1
    21    9   10 1
    22    9   11 1
    23   11   12 1
    24   11   34 1
    25   12   17 ar
    26   12   13 ar
    27   13   14 ar
    28   13   35 1
    29   14   15 ar
    30   14   36 1
    31   15   16 ar
    32   15   18 1
    33   16   17 ar
    34   16   37 1
    35   17   38 1
    36   18   22 1
    37   18   19 1
    38   19   20 1
    39   19   39 1
    40   19   40 1
    41   20   21 1
    42   20   41 1
    43   20   42 1
    44   21   22 1
    45   21   43 1
    46   21   44 1
    47   22   45 1
    48   22   46 1
@<TRIPOS>MOLECULE
ZINC44183912
   47    49     0     0     0
SMALL
USER_CHARGES

@<TRIPOS>ATOM
      1 C1         -0.0187    1.5258    0.0104 C.3       1 <0>        -0.1548
      2 C2          0.0021   -0.0041    0.0020 C.3       1 <0>        -0.1254
      3 C3         -1.4333   -0.5336    0.0129 C.3       1 <0>        -0.1140
      4 C4         -1.4126   -2.0635    0.0045 C.3       1 <0>        -0.0824
      5 H1         -0.8102   -2.4233    0.8386 H         1 <0>         0.0712
      6 C5         -0.8086   -2.5581   -1.3114 C.3       1 <0>        -0.1142
      7 C6         -0.7878   -4.0879   -1.3198 C.3       1 <0>        -0.1500
      8 C7         -2.2165   -4.6181   -1.1833 C.3       1 <0>         0.0990
      9 H2         -2.2017   -5.7080   -1.1893 H         1 <0>         0.0609
     10 C8         -2.8205   -4.1235    0.1326 C.3       1 <0>         0.1537
     11 H3         -2.2182   -4.4833    0.9668 H         1 <0>         0.1059
     12 C9         -2.8413   -2.5937    0.1410 C.3       1 <0>        -0.1206
     13 N1         -4.1885   -4.6312    0.2633 N.pl3     1 <0>        -0.4863
     14 C10        -5.2204   -4.3975   -0.5919 C.2       1 <0>         0.2840
     15 N2         -6.2940   -5.0014   -0.1729 N.2       1 <0>        -0.5052
     16 C11        -6.0241   -5.6644    0.9809 C.ar      1 <0>         0.0460
     17 C12        -4.6680   -5.4402    1.2740 C.ar      1 <0>         0.0427
     18 C13        -4.1039   -6.0067    2.4086 C.ar      1 <0>        -0.1120
     19 C14        -4.8789   -6.7885    3.2390 C.ar      1 <0>        -0.0684
     20 C15        -6.2166   -7.0122    2.9475 C.ar      1 <0>        -0.0948
     21 C16        -6.7906   -6.4571    1.8386 C.ar      1 <0>        -0.0633
     22 C17        -7.0471   -7.8699    3.8671 C.3       1 <0>        -0.1138
     23 C18        -4.2684   -7.4045    4.4715 C.3       1 <0>        -0.1150
     24 O1         -3.0062   -4.1464   -2.2769 O.3       1 <0>        -0.5600
     25 H4          1.0039    1.9031    0.0027 H         1 <0>         0.0540
     26 H5         -0.5459    1.8868   -0.8726 H         1 <0>         0.0540
     27 H6         -0.5289    1.8773    0.9072 H         1 <0>         0.0534
     28 H7          0.5123   -0.3556   -0.8948 H         1 <0>         0.0637
     29 H8          0.5293   -0.3651    0.8851 H         1 <0>         0.0603
     30 H9         -1.9435   -0.1821    0.9097 H         1 <0>         0.0629
     31 H10        -1.9605   -0.1726   -0.8702 H         1 <0>         0.0649
     32 H11        -1.4109   -2.1983   -2.1456 H         1 <0>         0.0733
     33 H12         0.2092   -2.1804   -1.4086 H         1 <0>         0.0695
     34 H13        -0.3576   -4.4403   -2.2572 H         1 <0>         0.0747
     35 H14        -0.1855   -4.4477   -0.4856 H         1 <0>         0.0745
     36 H15        -3.2715   -2.2413    1.0784 H         1 <0>         0.0693
     37 H16        -3.4436   -2.2339   -0.6932 H         1 <0>         0.0826
     38 H17        -5.1576   -3.7979   -1.4879 H         1 <0>         0.2141
     39 H18        -3.0628   -5.8362    2.6397 H         1 <0>         0.1180
     40 H19        -7.8326   -6.6389    1.6205 H         1 <0>         0.1278
     41 H20        -7.5051   -7.2439    4.6328 H         1 <0>         0.0699
     42 H21        -7.8267   -8.3698    3.2922 H         1 <0>         0.0659
     43 H22        -6.4101   -8.6165    4.3414 H         1 <0>         0.0706
     44 H23        -4.3787   -6.7199    5.3125 H         1 <0>         0.0716
     45 H24        -4.7749   -8.3427    4.6978 H         1 <0>         0.0736
     46 H25        -3.2099   -7.5963    4.2956 H         1 <0>         0.0641
     47 H26        -2.6811   -4.4226   -3.1447 H         1 <0>         0.3845
@<TRIPOS>BOND
     1    1    2 1
     2    1   25 1
     3    1   26 1
     4    1   27 1
     5    2    3 1
     6    2   28 1
     7    2   29 1
     8    3    4 1
     9    3   30 1
    10    3   31 1
    11    4    5 1
    12    4   12 1
    13    4    6 1
    14    6    7 1
    15    6   32 1
    16    6   33 1
    17    7    8 1
    18    7   34 1
    19    7   35 1
    20    8    9 1
    21    8   10 1
    22    8   24 1
    23   10   11 1
    24   10   12 1
    25   10   13 1
    26   12   36 1
    27   12   37 1
    28   13   17 1
    29   13   14 1
    30   14   15 2
    31   14   38 1
    32   15   16 1
    33   16   21 ar
    34   16   17 ar
    35   17   18 ar
    36   18   19 ar
    37   18   39 1
    38   19   20 ar
    39   19   23 1
    40   20   21 ar
    41   20   22 1
    42   21   40 1
    43   22   41 1
    44   22   42 1
    45   22   43 1
    46   23   44 1
    47   23   45 1
    48   23   46 1
    49   24   47 1
@<TRIPOS>MOLECULE
ZINC52814464
   28    29     0     0     0
SMALL
USER_CHARGES

@<TRIPOS>ATOM
      1 C1         -0.8082   -2.6593    2.5241 C.3       1 <0>        -0.1093
      2 C2         -0.9935   -2.1379    1.1224 C.ar      1 <0>         0.2238
      3 C3         -0.3722   -2.7606    0.0574 C.ar      1 <0>        -0.2761
      4 C4         -0.5731   -2.2419   -1.2232 C.ar      1 <0>         0.4453
      5 N1         -1.3509   -1.1731   -1.3704 N.ar      1 <0>        -0.5610
      6 C5         -1.9249   -0.6099   -0.3253 C.ar      1 <0>         0.4097
      7 N2         -1.7589   -1.0797    0.8963 N.ar      1 <0>        -0.5371
      8 Cl1        -2.9318    0.7840   -0.5642 Cl        1 <0>         0.0333
      9 N3          0.0291   -2.8313   -2.3240 N.pl3     1 <0>        -0.6453
     10 C6         -0.0757   -2.2313   -3.5836 C.ar      1 <0>         0.1468
     11 C7         -0.0833   -0.8469   -3.6961 C.ar      1 <0>        -0.0520
     12 C8         -0.1869   -0.2568   -4.9403 C.ar      1 <0>        -0.1299
     13 C9         -0.2835   -1.0443   -6.0754 C.ar      1 <0>         0.1374
     14 C10        -0.2765   -2.4244   -5.9656 C.ar      1 <0>        -0.2004
     15 C11        -0.1664   -3.0189   -4.7236 C.ar      1 <0>        -0.0741
     16 C12        -0.3827   -3.2787   -7.2025 C.3       1 <0>         0.5147
     17 F1         -0.3542   -4.6296   -6.8401 F         1 <0>        -0.1733
     18 F2         -1.5845   -2.9978   -7.8614 F         1 <0>        -0.1696
     19 F3          0.6919   -3.0016   -8.0543 F         1 <0>        -0.1702
     20 F4         -0.3851   -0.4649   -7.2916 F         1 <0>        -0.1215
     21 H1         -1.5779   -3.4000    2.7410 H         1 <0>         0.0922
     22 H2          0.1753   -3.1207    2.6131 H         1 <0>         0.0863
     23 H3         -0.8879   -1.8344    3.2321 H         1 <0>         0.0888
     24 H4          0.2538   -3.6270    0.2116 H         1 <0>         0.1556
     25 H5          0.5231   -3.6597   -2.2210 H         1 <0>         0.4290
     26 H6         -0.0088   -0.2324   -2.8111 H         1 <0>         0.1509
     27 H7         -0.1929    0.8196   -5.0281 H         1 <0>         0.1544
     28 H8         -0.1557   -4.0955   -4.6388 H         1 <0>         0.1519
@<TRIPOS>BOND
     1    1    2 1
     2    1   21 1
     3    1   22 1
     4    1   23 1
     5    2    7 ar
     6    2    3 ar
     7    3    4 ar
     8    3   24 1
     9    4    5 ar
    10    4    9 1
    11    5    6 ar
    12    6    7 ar
    13    6    8 1
    14    9   10 1
    15    9   25 1
    16   10   15 ar
    17   10   11 ar
    18   11   12 ar
    19   11   26 1
    20   12   13 ar
    21   12   27 1
    22   13   14 ar
    23   13   20 1
    24   14   15 ar
    25   14   16 1
    26   15   28 1
    27   16   17 1
    28   16   18 1
    29   16   19 1
@<TRIPOS>MOLECULE
ZINC04078381
   34    35     0     0     0
SMALL
USER_CHARGES
ethyl 2-[[5-(2-fluorobenzoyl)amino-1,3,4-thiadiazol-2-yl]sulfanyl]acetate
@<TRIPOS>ATOM
      1 C1          1.2681   -2.6811   -2.1899 C.3       1 <0>        -0.1548
      2 C2          0.5650   -2.1125   -0.9556 C.3       1 <0>         0.0627
      3 O1          0.5827   -0.6618   -1.0138 O.3       1 <0>        -0.3475
      4 C3          0.0021   -0.0041    0.0020 C.2       1 <0>         0.4876
      5 O2         -0.5042   -0.6201    0.9098 O.2       1 <0>        -0.4911
      6 C4         -0.0184    1.5028    0.0103 C.3       1 <0>        -0.1372
      7 S1         -0.8674    2.0878    1.5028 S.3       1 <0>         0.1358
      8 C5         -0.8086    3.8435    1.3661 C.2       1 <0>        -0.0067
      9 N1         -0.2825    4.6071    0.4197 N.2       1 <0>        -0.2550
     10 N2         -0.3279    5.8663    0.4768 N.2       1 <0>        -0.2689
     11 C6         -0.9031    6.5022    1.4845 C.2       1 <0>         0.2851
     12 S2         -1.4496    5.1056    2.4626 S.3       1 <0>         0.0613
     13 N3         -1.0475    7.8671    1.7153 N.am      1 <0>        -0.6080
     14 C7         -0.5563    8.7560    0.8292 C.2       1 <0>         0.5563
     15 O3          0.0131    8.3655   -0.1717 O.2       1 <0>        -0.4474
     16 C8         -0.7095   10.2039    1.0740 C.ar      1 <0>        -0.1764
     17 C9         -1.3679   10.6563    2.2198 C.ar      1 <0>        -0.0576
     18 C10        -1.5033   12.0096    2.4447 C.ar      1 <0>        -0.1355
     19 C11        -0.9981   12.9216    1.5335 C.ar      1 <0>        -0.0541
     20 C12        -0.3496   12.4839    0.3942 C.ar      1 <0>        -0.1611
     21 C13        -0.2011   11.1294    0.1570 C.ar      1 <0>         0.1689
     22 F1          0.4325   10.7017   -0.9569 F         1 <0>        -0.1103
     23 H1          0.7503   -2.3472   -3.0891 H         1 <0>         0.0688
     24 H2          2.3000   -2.3310   -2.2137 H         1 <0>         0.0688
     25 H3          1.2548   -3.7701   -2.1462 H         1 <0>         0.0839
     26 H4          1.0828   -2.4464   -0.0565 H         1 <0>         0.0750
     27 H5         -0.4670   -2.4627   -0.9318 H         1 <0>         0.0750
     28 H6          1.0042    1.8801    0.0026 H         1 <0>         0.1423
     29 H7         -0.5455    1.8639   -0.8728 H         1 <0>         0.1422
     30 H8         -1.5017    8.1786    2.5137 H         1 <0>         0.4282
     31 H9         -1.7669    9.9473    2.9300 H         1 <0>         0.1358
     32 H10        -2.0092   12.3597    3.3324 H         1 <0>         0.1417
     33 H11        -1.1117   13.9803    1.7138 H         1 <0>         0.1433
     34 H12         0.0417   13.2009   -0.3124 H         1 <0>         0.1484
@<TRIPOS>BOND
     1    1    2 1
     2    1   23 1
     3    1   24 1
     4    1   25 1
     5    2    3 1
     6    2   26 1
     7    2   27 1
     8    3    4 1
     9    4    5 2
    10    4    6 1
    11    6    7 1
    12    6   28 1
    13    6   29 1
    14    7    8 1
    15    8   12 1
    16    8    9 2
    17    9   10 1
    18   10   11 2
    19   11   12 1
    20   11   13 1
    21   13   14 am
    22   13   30 1
    23   14   15 2
    24   14   16 1
    25   16   21 ar
    26   16   17 ar
    27   17   18 ar
    28   17   31 1
    29   18   19 ar
    30   18   32 1
    31   19   20 ar
    32   19   33 1
    33   20   21 ar
    34   20   34 1
    35   21   22 1
@<TRIPOS>MOLECULE
ZINC25695232
   43    44     0     0     0
SMALL
USER_CHARGES
diethyl 2,6-dimethyl-4-thiazol-2-yl-1,4-dihydropyridine-3,5-dicarboxylate
@<TRIPOS>ATOM
      1 C1         -0.8537    6.1068   -1.4797 C.3       1 <0>        -0.1526
      2 C2          0.4954    5.4823   -1.1179 C.3       1 <0>         0.0631
      3 O1          0.3046    4.1136   -0.7545 O.3       1 <0>        -0.3399
      4 C3          1.4041    3.4134   -0.4052 C.2       1 <0>         0.5206
      5 O2          2.4952    3.9520   -0.4094 O.2       1 <0>        -0.5222
      6 C4          1.2882    2.0537   -0.0341 C.2       1 <0>        -0.2688
      7 C5          2.3927    1.3699    0.3107 C.2       1 <0>         0.2489
      8 N1          2.3177    0.0511    0.6674 N.pl3     1 <0>        -0.6378
      9 C6          1.2140   -0.6898    0.3436 C.2       1 <0>         0.2664
     10 C7          0.0602   -0.0919   -0.0004 C.2       1 <0>        -0.2811
     11 C8         -0.0668    1.4047   -0.0345 C.3       1 <0>         0.1338
     12 C9         -0.8377    1.8650    1.1758 C.2       1 <0>         0.1257
     13 N2         -1.9704    2.5269    1.2296 N.2       1 <0>        -0.4901
     14 C10        -2.5191    2.8569    2.3800 C.2       1 <0>         0.0320
     15 C11        -1.8848    2.4960    3.5246 C.2       1 <0>        -0.2193
     16 S1         -0.4597    1.6492    2.8570 S.3       1 <0>         0.0133
     17 C12        -1.0584   -0.8889   -0.3370 C.2       1 <0>         0.5331
     18 O3         -0.9425   -2.0977   -0.4161 O.2       1 <0>        -0.5111
     19 O4         -2.2544   -0.3090   -0.5705 O.3       1 <0>        -0.3333
     20 C13        -3.3408   -1.1748   -0.9056 C.3       1 <0>         0.0602
     21 C14        -4.6045   -0.3427   -1.1330 C.3       1 <0>        -0.1528
     22 C15         1.2928   -2.1944    0.3725 C.3       1 <0>        -0.2311
     23 C16         3.7301    2.0644    0.3050 C.3       1 <0>        -0.1190
     24 H1         -0.7068    7.1604   -1.7594 H         1 <0>         0.0779
     25 H2         -1.5290    6.0482   -0.6134 H         1 <0>         0.0670
     26 H3         -1.2952    5.5608   -2.3264 H         1 <0>         0.0675
     27 H4          1.1707    5.5409   -1.9842 H         1 <0>         0.0664
     28 H5          0.9370    6.0283   -0.2712 H         1 <0>         0.0643
     29 H6          3.1471   -0.4180    1.2170 H         1 <0>         0.4541
     30 H7         -0.5935    1.6916   -0.9566 H         1 <0>         0.1203
     31 H8         -3.4510    3.4018    2.4123 H         1 <0>         0.1673
     32 H9         -2.1657    2.6686    4.5530 H         1 <0>         0.1939
     33 H10        -3.0974   -1.7302   -1.8233 H         1 <0>         0.0692
     34 H11        -3.5119   -1.8840   -0.0823 H         1 <0>         0.0668
     35 H12        -5.4408   -1.0091   -1.3909 H         1 <0>         0.0789
     36 H13        -4.4333    0.3664   -1.9563 H         1 <0>         0.0683
     37 H14        -4.8478    0.2127   -0.2152 H         1 <0>         0.0667
     38 H15         0.3190   -2.6181    0.0859 H         1 <0>         0.1909
     39 H16         1.5537   -2.5285    1.3876 H         1 <0>         0.0788
     40 H17         2.0633   -2.5349   -0.3349 H         1 <0>         0.0845
     41 H18         4.5129    1.3551    0.6118 H         1 <0>         0.0665
     42 H19         3.7067    2.9109    1.0071 H         1 <0>         0.1048
     43 H20         3.9469    2.4341   -0.7081 H         1 <0>         0.1075
@<TRIPOS>BOND
     1    1    2 1
     2    1   24 1
     3    1   25 1
     4    1   26 1
     5    2    3 1
     6    2   27 1
     7    2   28 1
     8    3    4 1
     9    4    5 2
    10    4    6 1
    11    6   11 1
    12    6    7 2
    13    7    8 1
    14    7   23 1
    15    8    9 1
    16    8   29 1
    17    9   10 2
    18    9   22 1
    19   10   11 1
    20   10   17 1
    21   11   12 1
    22   11   30 1
    23   12   16 1
    24   12   13 2
    25   13   14 1
    26   14   15 2
    27   14   31 1
    28   15   16 1
    29   15   32 1
    30   17   18 2
    31   17   19 1
    32   19   20 1
    33   20   21 1
    34   20   33 1
    35   20   34 1
    36   21   35 1
    37   21   36 1
    38   21   37 1
    39   22   38 1
    40   22   39 1
    41   22   40 1
    42   23   41 1
    43   23   42 1
    44   23   43 1
@<TRIPOS>MOLECULE
ZINC41136358
   37    38     0     0     0
SMALL
USER_CHARGES

@<TRIPOS>ATOM
      1 C1         -0.0187    1.5258    0.0104 C.3       1 <0>        -0.1587
      2 C2          0.0021   -0.0041    0.0020 C.3       1 <0>        -0.1161
      3 C3          0.7182   -0.4975   -1.2568 C.3       1 <0>        -0.1149
      4 C4          0.7390   -2.0273   -1.2652 C.3       1 <0>        -0.6271
      5 S1          1.5880   -2.6123   -2.7577 S.o2      1 <0>         2.6101
      6 O1          0.8185   -2.3031   -3.9115 O.2       1 <0>        -0.9483
      7 O2          2.9684   -2.2806   -2.6972 O.2       1 <0>        -0.9456
      8 N1          1.5454   -4.2644   -2.6516 N.pl3     1 <0>        -1.1205
      9 C5          0.2620   -4.9689   -2.7045 C.3       1 <0>         0.2176
     10 C6          0.5037   -6.4346   -2.9584 C.2       1 <0>         0.1490
     11 N2          0.6727   -7.3553   -2.0510 N.2       1 <0>        -0.2579
     12 N3          0.8536   -8.4940   -2.6221 N.2       1 <0>        -0.2510
     13 C7          0.8059   -8.3373   -3.9243 C.2       1 <0>         0.2137
     14 O3          0.5782   -7.0300   -4.1613 O.3       1 <0>        -0.2098
     15 C8          0.9664   -9.3979   -4.9415 C.ar      1 <0>        -0.0271
     16 C9          0.8976   -9.0829   -6.2995 C.ar      1 <0>        -0.0701
     17 C10         1.0481  -10.0771   -7.2436 C.ar      1 <0>        -0.1166
     18 C11         1.2666  -11.3851   -6.8477 C.ar      1 <0>        -0.0771
     19 C12         1.3356  -11.7052   -5.5041 C.ar      1 <0>        -0.1128
     20 C13         1.1932  -10.7185   -4.5481 C.ar      1 <0>         0.0050
     21 Cl1         1.2883  -11.1202   -2.8619 Cl        1 <0>        -0.0211
     22 H1          1.0039    1.9031    0.0027 H         1 <0>         0.0574
     23 H2         -0.5459    1.8868   -0.8726 H         1 <0>         0.0574
     24 H3         -0.5289    1.8773    0.9072 H         1 <0>         0.0590
     25 H4          0.5293   -0.3651    0.8851 H         1 <0>         0.0673
     26 H5         -1.0205   -0.3814    0.0098 H         1 <0>         0.0672
     27 H6          0.1910   -0.1364   -2.1398 H         1 <0>         0.0812
     28 H7          1.7408   -0.1202   -1.2645 H         1 <0>         0.0810
     29 H8          1.2661   -2.3884   -0.3821 H         1 <0>         0.1384
     30 H9         -0.2836   -2.4046   -1.2575 H         1 <0>         0.1345
     31 H10         2.3702   -4.7656   -2.5544 H         1 <0>         0.4250
     32 H11        -0.2595   -4.8457   -1.7554 H         1 <0>         0.1186
     33 H12        -0.3461   -4.5562   -3.5095 H         1 <0>         0.1175
     34 H13         0.7265   -8.0629   -6.6104 H         1 <0>         0.1423
     35 H14         0.9950   -9.8343   -8.2947 H         1 <0>         0.1422
     36 H15         1.3834  -12.1594   -7.5915 H         1 <0>         0.1430
     37 H16         1.5059  -12.7280   -5.2018 H         1 <0>         0.1472
@<TRIPOS>BOND
     1    1    2 1
     2    1   22 1
     3    1   23 1
     4    1   24 1
     5    2    3 1
     6    2   25 1
     7    2   26 1
     8    3    4 1
     9    3   27 1
    10    3   28 1
    11    4    5 1
    12    4   29 1
    13    4   30 1
    14    5    6 2
    15    5    7 2
    16    5    8 1
    17    8    9 1
    18    8   31 1
    19    9   10 1
    20    9   32 1
    21    9   33 1
    22   10   14 1
    23   10   11 2
    24   11   12 1
    25   12   13 2
    26   13   14 1
    27   13   15 1
    28   15   20 ar
    29   15   16 ar
    30   16   17 ar
    31   16   34 1
    32   17   18 ar
    33   17   35 1
    34   18   19 ar
    35   18   36 1
    36   19   20 ar
    37   19   37 1
    38   20   21 1
@<TRIPOS>MOLECULE
ZINC56072747
   40    41     0     0     0
SMALL
USER_CHARGES

@<TRIPOS>ATOM
      1 C1         -0.0187    1.5258    0.0104 C.3       1 <0>        -0.1617
      2 C2          0.0021   -0.0041    0.0020 C.3       1 <0>        -0.1070
      3 H1          0.5293   -0.3651    0.8851 H         1 <0>         0.0850
      4 C3         -1.4333   -0.5336    0.0129 C.3       1 <0>         0.1207
      5 N1         -2.0815   -0.1618    1.2729 N.pl3     1 <0>        -1.1132
      6 S1         -3.7275   -0.2680    1.4202 S.o2      1 <0>         2.7006
      7 O1         -4.0430    0.1299    2.7474 O.2       1 <0>        -0.9518
      8 O2         -4.2797    0.3759    0.2802 O.2       1 <0>        -0.9499
      9 C4         -4.1531   -1.9730    1.2911 C.ar      1 <0>        -0.7081
     10 C5         -4.4282   -2.5237    0.0529 C.ar      1 <0>         0.0236
     11 C6         -4.7626   -3.8601   -0.0516 C.ar      1 <0>        -0.2185
     12 C7         -4.8221   -4.6502    1.0869 C.ar      1 <0>         0.1944
     13 C8         -4.5452   -4.0956    2.3289 C.ar      1 <0>        -0.0924
     14 C9         -4.2060   -2.7589    2.4272 C.ar      1 <0>         0.0289
     15 Cl1        -4.6184   -5.0808    3.7564 Cl        1 <0>        -0.0406
     16 O3         -5.1514   -5.9652    0.9865 O.3       1 <0>        -0.2971
     17 C10        -5.4240   -6.4676   -0.3232 C.3       1 <0>         0.0199
     18 C11         0.7182   -0.4975   -1.2568 C.3       1 <0>         0.1370
     19 N2          2.1249   -0.0911   -1.2094 N.pl3     1 <0>        -0.3719
     20 C12         3.1919   -0.9090   -1.3257 C.2       1 <0>         0.0524
     21 C13         4.3070   -0.1485   -1.2288 C.2       1 <0>        -0.2729
     22 C14         3.9078    1.1796   -1.0471 C.2       1 <0>         0.0436
     23 N3          2.5999    1.2160   -1.0413 N.2       1 <0>        -0.2900
     24 H2          1.0039    1.9031    0.0027 H         1 <0>         0.0918
     25 H3         -0.5459    1.8868   -0.8726 H         1 <0>         0.0574
     26 H4         -0.5289    1.8773    0.9072 H         1 <0>         0.0549
     27 H5         -1.9862   -0.1019   -0.8214 H         1 <0>         0.0873
     28 H6         -1.4207   -1.6194   -0.0826 H         1 <0>         0.0684
     29 H7         -1.5465    0.1467    2.0210 H         1 <0>         0.4219
     30 H8         -4.3818   -1.9084   -0.8335 H         1 <0>         0.1508
     31 H9         -4.9780   -4.2891   -1.0190 H         1 <0>         0.1493
     32 H10        -3.9864   -2.3274    3.3926 H         1 <0>         0.1577
     33 H11        -5.6728   -7.5270   -0.2614 H         1 <0>         0.1103
     34 H12        -6.2632   -5.9218   -0.7543 H         1 <0>         0.0639
     35 H13        -4.5438   -6.3372   -0.9528 H         1 <0>         0.0633
     36 H14         0.6556   -1.5845   -1.3079 H         1 <0>         0.0987
     37 H15         0.2444   -0.0644   -2.1377 H         1 <0>         0.0905
     38 H16         3.1614   -1.9789   -1.4699 H         1 <0>         0.1727
     39 H17         5.3254   -0.5043   -1.2818 H         1 <0>         0.1470
     40 H18         4.5654    2.0290   -0.9357 H         1 <0>         0.1827
@<TRIPOS>BOND
     1    1    2 1
     2    1   24 1
     3    1   25 1
     4    1   26 1
     5    2    3 1
     6    2    4 1
     7    2   18 1
     8    4    5 1
     9    4   27 1
    10    4   28 1
    11    5    6 1
    12    5   29 1
    13    6    7 2
    14    6    8 2
    15    6    9 1
    16    9   14 ar
    17    9   10 ar
    18   10   11 ar
    19   10   30 1
    20   11   12 ar
    21   11   31 1
    22   12   13 ar
    23   12   16 1
    24   13   14 ar
    25   13   15 1
    26   14   32 1
    27   16   17 1
    28   17   33 1
    29   17   34 1
    30   17   35 1
    31   18   19 1
    32   18   36 1
    33   18   37 1
    34   19   23 1
    35   19   20 1
    36   20   21 2
    37   20   38 1
    38   21   22 1
    39   21   39 1
    40   22   23 2
    41   22   40 1
@<TRIPOS>MOLECULE
ZINC65393806
   50    52     0     0     0
SMALL
USER_CHARGES

@<TRIPOS>ATOM
      1 C1         -1.0766    1.2459    0.3840 C.2       1 <0>        -0.1623
      2 C2         -0.8151   -0.0349    0.2990 C.2       1 <0>        -0.1838
      3 C3         -1.9390   -1.0234    0.1239 C.3       1 <0>         0.1430
      4 N1         -1.6867   -1.8446   -1.0628 N.am      1 <0>        -0.6100
      5 C4         -0.9332   -3.0951   -0.9416 C.3       1 <0>         0.1333
      6 C5         -1.8852   -4.2308   -0.6681 C.2       1 <0>        -0.1788
      7 C6         -1.8898   -5.2837   -1.4476 C.2       1 <0>        -0.1744
      8 C7         -2.1479   -1.4497   -2.2661 C.2       1 <0>         0.5175
      9 O1         -2.7717   -0.4144   -2.3664 O.2       1 <0>        -0.5115
     10 C8         -1.8883   -2.2944   -3.4868 C.3       1 <0>         0.0361
     11 N2         -2.4889   -1.6520   -4.6635 N.3       1 <0>        -0.5178
     12 C9         -2.4440   -2.5454   -5.8328 C.3       1 <0>         0.0574
     13 C10        -3.3468   -1.9637   -6.9237 C.3       1 <0>        -0.0754
     14 C11        -3.0301   -0.5074   -7.1205 C.2       1 <0>         0.1011
     15 C12        -2.3538    0.1940   -6.2484 C.2       1 <0>        -0.1859
     16 C13        -1.8189   -0.3816   -4.9689 C.3       1 <0>         0.0935
     17 N3         -3.4759    0.1217   -8.2819 N.am      1 <0>        -0.4773
     18 C14        -4.3343   -0.4309   -9.2312 C.ar      1 <0>         0.0829
     19 C15        -4.9703   -1.6582   -9.3392 C.ar      1 <0>        -0.1059
     20 C16        -5.7813   -1.9188  -10.4263 C.ar      1 <0>        -0.1088
     21 C17        -5.9616   -0.9599  -11.4085 C.ar      1 <0>        -0.1051
     22 C18        -5.3322    0.2654  -11.3096 C.ar      1 <0>        -0.1044
     23 C19        -4.5162    0.5363  -10.2218 C.ar      1 <0>         0.0918
     24 N4         -3.7633    1.6458   -9.8443 N.am      1 <0>        -0.6412
     25 H1         -3.6920    2.4779  -10.3378 H         1 <0>         0.4372
     26 C20        -3.1555    1.3688   -8.6753 C.2       1 <0>         0.6802
     27 O2         -2.4255    2.1294   -8.0677 O.2       1 <0>        -0.5386
     28 H2         -0.2712    1.9544    0.5094 H         1 <0>         0.0988
     29 H3         -2.0973    1.5938    0.3242 H         1 <0>         0.1000
     30 H4          0.2060   -0.3824    0.3543 H         1 <0>         0.1078
     31 H5         -1.9992   -1.6646    1.0033 H         1 <0>         0.0846
     32 H6         -2.8795   -0.4863    0.0008 H         1 <0>         0.0891
     33 H7         -0.3958   -3.2870   -1.8703 H         1 <0>         0.0830
     34 H8         -0.2212   -3.0121   -0.1204 H         1 <0>         0.0909
     35 H9         -2.5637   -4.1767    0.1704 H         1 <0>         0.1134
     36 H10        -1.2113   -5.3378   -2.2861 H         1 <0>         0.0986
     37 H11        -2.5721   -6.0976   -1.2516 H         1 <0>         0.1027
     38 H12        -0.8135   -2.3953   -3.6369 H         1 <0>         0.0644
     39 H13        -2.3299   -3.2810   -3.3465 H         1 <0>         0.1079
     40 H14        -1.4208   -2.6140   -6.2022 H         1 <0>         0.0450
     41 H15        -2.8018   -3.5357   -5.5510 H         1 <0>         0.0890
     42 H16        -3.1794   -2.5006   -7.8574 H         1 <0>         0.0866
     43 H17        -4.3900   -2.0710   -6.6265 H         1 <0>         0.0922
     44 H18        -2.1709    1.2375   -6.4587 H         1 <0>         0.1533
     45 H19        -1.9929    0.3229   -4.1556 H         1 <0>         0.1109
     46 H20        -0.7474   -0.5540   -5.0708 H         1 <0>         0.0445
     47 H21        -4.8317   -2.4087   -8.5751 H         1 <0>         0.1385
     48 H22        -6.2765   -2.8749  -10.5108 H         1 <0>         0.1363
     49 H23        -6.5970   -1.1712  -12.2559 H         1 <0>         0.1359
     50 H24        -5.4750    1.0108  -12.0780 H         1 <0>         0.1336
@<TRIPOS>BOND
     1    1    2 2
     2    1   28 1
     3    1   29 1
     4    2    3 1
     5    2   30 1
     6    3    4 1
     7    3   31 1
     8    3   32 1
     9    4    5 1
    10    4    8 am
    11    5    6 1
    12    5   33 1
    13    5   34 1
    14    6    7 2
    15    6   35 1
    16    7   36 1
    17    7   37 1
    18    8    9 2
    19    8   10 1
    20   10   11 1
    21   10   38 1
    22   10   39 1
    23   11   16 1
    24   11   12 1
    25   12   13 1
    26   12   40 1
    27   12   41 1
    28   13   14 1
    29   13   42 1
    30   13   43 1
    31   14   15 2
    32   14   17 1
    33   15   16 1
    34   15   44 1
    35   16   45 1
    36   16   46 1
    37   17   26 am
    38   17   18 1
    39   18   23 ar
    40   18   19 ar
    41   19   20 ar
    42   19   47 1
    43   20   21 ar
    44   20   48 1
    45   21   22 ar
    46   21   49 1
    47   22   23 ar
    48   22   50 1
    49   23   24 1
    50   24   25 1
    51   24   26 am
    52   26   27 2
@<TRIPOS>MOLECULE
ZINC02630407
   43    46     0     0     0
SMALL
USER_CHARGES
(3,5-dimethylisoxazol-4-yl)methylBLAHdione
@<TRIPOS>ATOM
      1 C1         -0.0127    1.0858    0.0080 C.3       1 <0>        -0.0948
      2 C2         -0.7181    1.5718    1.2479 C.2       1 <0>         0.0460
      3 C3         -0.1289    1.8553    2.5014 C.2       1 <0>        -0.2430
      4 C4         -1.1706    2.2531    3.2703 C.2       1 <0>         0.0023
      5 O1         -2.2608    2.1930    2.4929 O.3       1 <0>         0.0974
      6 N1         -1.9897    1.8192    1.3753 N.2       1 <0>        -0.3668
      7 C5         -1.1149    2.6788    4.7149 C.3       1 <0>        -0.0763
      8 C6          1.3224    1.7418    2.8915 C.3       1 <0>         0.2015
      9 N2          2.0005    3.0127    2.6245 N.am      1 <0>        -0.5742
     10 C7          2.1021    4.0203    3.5164 C.2       1 <0>         0.5329
     11 O2          1.6656    4.0470    4.6471 O.2       1 <0>        -0.4433
     12 C8          2.8743    5.1082    2.8077 C.3       1 <0>         0.1234
     13 C9          2.0299    6.3753    2.6948 C.3       1 <0>        -0.1135
     14 C10         1.5375    6.7560    4.0901 C.3       1 <0>        -0.0858
     15 C11         2.6803    6.7774    5.0711 C.ar      1 <0>        -0.0577
     16 C12         2.4888    7.4560    6.2686 C.ar      1 <0>        -0.1172
     17 C13         3.4923    7.5084    7.2133 C.ar      1 <0>        -0.1147
     18 C14         4.6996    6.8806    6.9688 C.ar      1 <0>        -0.1214
     19 C15         4.8929    6.2083    5.7800 C.ar      1 <0>        -0.1130
     20 C16         3.8844    6.1571    4.8263 C.ar      1 <0>        -0.0811
     21 C17         4.1689    5.4178    3.5439 C.3       1 <0>        -0.0695
     22 N3          3.1469    4.5482    1.4794 N.am      1 <0>        -0.7187
     23 C18         2.6015    3.3164    1.4673 C.2       1 <0>         0.7038
     24 O3          2.6474    2.5662    0.5122 O.2       1 <0>        -0.5329
     25 H1          0.0021   -0.0041    0.0020 H         1 <0>         0.0800
     26 H2          1.0099    1.4631    0.0003 H         1 <0>         0.1062
     27 H3         -0.5399    1.4469   -0.8751 H         1 <0>         0.0740
     28 H4         -0.9459    3.7542    4.7705 H         1 <0>         0.0919
     29 H5         -2.0583    2.4335    5.2026 H         1 <0>         0.0860
     30 H6         -0.3001    2.1566    5.2164 H         1 <0>         0.0947
     31 H7          1.3959    1.5069    3.9533 H         1 <0>         0.1092
     32 H8          1.7939    0.9493    2.3105 H         1 <0>         0.1120
     33 H9          2.6362    7.1842    2.2871 H         1 <0>         0.0914
     34 H10         1.1781    6.1905    2.0404 H         1 <0>         0.0810
     35 H11         1.0788    7.7440    4.0517 H         1 <0>         0.0861
     36 H12         0.7958    6.0285    4.4199 H         1 <0>         0.0899
     37 H13         1.5462    7.9467    6.4611 H         1 <0>         0.1218
     38 H14         3.3355    8.0386    8.1411 H         1 <0>         0.1227
     39 H15         5.4881    6.9161    7.7059 H         1 <0>         0.1229
     40 H16         5.8361    5.7181    5.5890 H         1 <0>         0.1208
     41 H17         4.6841    4.4850    3.7733 H         1 <0>         0.0850
     42 H18         4.8060    6.0327    2.9081 H         1 <0>         0.0992
     43 H19         3.6274    4.9782    0.7547 H         1 <0>         0.4419
@<TRIPOS>BOND
     1    1    2 1
     2    1   25 1
     3    1   26 1
     4    1   27 1
     5    2    6 2
     6    2    3 1
     7    3    4 2
     8    3    8 1
     9    4    5 1
    10    4    7 1
    11    5    6 1
    12    7   28 1
    13    7   29 1
    14    7   30 1
    15    8    9 1
    16    8   31 1
    17    8   32 1
    18    9   23 am
    19    9   10 am
    20   10   11 2
    21   10   12 1
    22   12   21 1
    23   12   13 1
    24   12   22 1
    25   13   14 1
    26   13   33 1
    27   13   34 1
    28   14   15 1
    29   14   35 1
    30   14   36 1
    31   15   20 ar
    32   15   16 ar
    33   16   17 ar
    34   16   37 1
    35   17   18 ar
    36   17   38 1
    37   18   19 ar
    38   18   39 1
    39   19   20 ar
    40   19   40 1
    41   20   21 1
    42   21   41 1
    43   21   42 1
    44   22   23 am
    45   22   43 1
    46   23   24 2
@<TRIPOS>MOLECULE
ZINC13472633
   42    44     0     0     0
SMALL
USER_CHARGES
N,2,2-trimethyl-4-(2-oxo-1-pyridyl)chromene-6-sulfonamide
@<TRIPOS>ATOM
      1 C1         -0.1197    1.3598   -0.2233 C.3       1 <0>        -0.1384
      2 C2         -0.7659    1.6697    1.1284 C.3       1 <0>         0.1555
      3 C3         -2.1754    1.1392    1.1383 C.2       1 <0>        -0.1348
      4 C4         -3.1060    1.7298    1.8981 C.2       1 <0>         0.1167
      5 C5         -2.7020    2.9097    2.6985 C.ar      1 <0>        -0.1486
      6 C6         -3.4816    3.3750    3.7502 C.ar      1 <0>         0.0305
      7 C7         -3.0660    4.4786    4.4703 C.ar      1 <0>        -0.7044
      8 C8         -1.8813    5.1173    4.1472 C.ar      1 <0>         0.0200
      9 C9         -1.0993    4.6606    3.1017 C.ar      1 <0>        -0.1583
     10 C10        -1.5029    3.5573    2.3723 C.ar      1 <0>         0.2010
     11 O1         -0.7603    3.0819    1.3404 O.3       1 <0>        -0.2969
     12 S1         -4.0487    5.0757    5.8053 S.o2      1 <0>         2.6985
     13 O2         -3.7168    6.4473    5.9721 O.2       1 <0>        -0.9510
     14 O3         -5.3779    4.6382    5.5586 O.2       1 <0>        -0.9559
     15 N1         -3.5401    4.2958    7.1747 N.pl3     1 <0>        -1.1199
     16 C11        -2.1843    4.5176    7.6834 C.3       1 <0>         0.0811
     17 N2         -4.4190    1.2486    1.9351 N.am      1 <0>        -0.4510
     18 C12        -5.4355    2.0335    1.4889 C.2       1 <0>         0.1269
     19 C13        -6.7130    1.5869    1.5098 C.2       1 <0>        -0.2163
     20 C14        -6.9990    0.3074    2.0065 C.2       1 <0>        -0.0115
     21 C15        -5.9780   -0.4764    2.4589 C.2       1 <0>        -0.2401
     22 C16        -4.6627    0.0151    2.4174 C.2       1 <0>         0.5133
     23 O4         -3.7403   -0.6760    2.8191 O.2       1 <0>        -0.5377
     24 C17         0.0370    0.9896    2.2392 C.3       1 <0>        -0.1737
     25 H1         -0.1136    0.2818   -0.3846 H         1 <0>         0.0864
     26 H2          0.9040    1.7341   -0.2310 H         1 <0>         0.0783
     27 H3         -0.6890    1.8428   -1.0175 H         1 <0>         0.0716
     28 H4         -2.4353    0.2830    0.5335 H         1 <0>         0.1427
     29 H5         -4.4061    2.8773    4.0033 H         1 <0>         0.1408
     30 H6         -1.5651    5.9793    4.7159 H         1 <0>         0.1534
     31 H7         -0.1760    5.1640    2.8560 H         1 <0>         0.1510
     32 H8         -4.1399    3.6920    7.6401 H         1 <0>         0.4209
     33 H9         -1.4589    4.2200    6.9261 H         1 <0>         0.0597
     34 H10        -2.0524    5.5739    7.9176 H         1 <0>         0.0717
     35 H11        -2.0327    3.9238    8.5848 H         1 <0>         0.0860
     36 H12        -5.2209    3.0218    1.1101 H         1 <0>         0.1623
     37 H13        -7.5120    2.2175    1.1486 H         1 <0>         0.1526
     38 H14        -8.0165   -0.0538    2.0310 H         1 <0>         0.1410
     39 H15        -6.1791   -1.4647    2.8453 H         1 <0>         0.1537
     40 H16         1.0605    1.3643    2.2291 H         1 <0>         0.0774
     41 H17        -0.4205    1.2081    3.2041 H         1 <0>         0.0625
     42 H18         0.0429   -0.0880    2.0756 H         1 <0>         0.0829
@<TRIPOS>BOND
     1    1    2 1
     2    1   25 1
     3    1   26 1
     4    1   27 1
     5    2   11 1
     6    2    3 1
     7    2   24 1
     8    3    4 2
     9    3   28 1
    10    4    5 1
    11    4   17 1
    12    5   10 ar
    13    5    6 ar
    14    6    7 ar
    15    6   29 1
    16    7    8 ar
    17    7   12 1
    18    8    9 ar
    19    8   30 1
    20    9   10 ar
    21    9   31 1
    22   10   11 1
    23   12   13 2
    24   12   14 2
    25   12   15 1
    26   15   16 1
    27   15   32 1
    28   16   33 1
    29   16   34 1
    30   16   35 1
    31   17   22 am
    32   17   18 1
    33   18   19 2
    34   18   36 1
    35   19   20 1
    36   19   37 1
    37   20   21 2
    38   20   38 1
    39   21   22 1
    40   21   39 1
    41   22   23 2
    42   24   40 1
    43   24   41 1
    44   24   42 1
@<TRIPOS>MOLECULE
ZINC43919425
   45    48     0     0     0
SMALL
USER_CHARGES

@<TRIPOS>ATOM
      1 C1         -0.0286    1.4901    0.0180 C.3       1 <0>        -0.0810
      2 C2         -0.0025   -0.0166    0.0059 C.2       1 <0>         0.1641
      3 C3          0.0063   -0.8341   -1.1430 C.2       1 <0>        -0.3076
      4 C4         -0.0049   -0.5590   -2.5845 C.2       1 <0>         0.4649
      5 O1         -0.0263    0.5824   -3.0135 O.2       1 <0>        -0.4746
      6 C5          0.0113   -1.7192   -3.4913 C.2       1 <0>        -0.2954
      7 C6          0.0358   -2.9849   -2.9447 C.2       1 <0>         0.1988
      8 N1          0.0447   -3.1847   -1.6191 N.pl3     1 <0>        -0.5777
      9 H1          0.0621   -4.0962   -1.2879 H         1 <0>         0.4202
     10 C7          0.0313   -2.1603   -0.7127 C.2       1 <0>         0.3394
     11 N2          0.0372   -2.1279    0.6465 N.pl3     1 <0>        -0.3248
     12 N3          0.0216   -0.7894    1.0561 N.2       1 <0>        -0.2683
     13 C8          0.0605   -3.2443    1.4932 C.ar      1 <0>         0.1442
     14 C9         -0.6057   -4.4071    1.1298 C.ar      1 <0>        -0.1463
     15 C10        -0.5808   -5.5057    1.9664 C.ar      1 <0>        -0.0905
     16 C11         0.1062   -5.4483    3.1651 C.ar      1 <0>        -0.1167
     17 C12         0.7703   -4.2916    3.5300 C.ar      1 <0>        -0.0924
     18 C13         0.7547   -3.1918    2.6946 C.ar      1 <0>        -0.1035
     19 C14         0.0012   -1.5318   -4.9508 C.2       1 <0>         0.5940
     20 O2          1.0104   -1.1685   -5.5244 O.2       1 <0>        -0.5214
     21 N4         -1.1265   -1.7625   -5.6520 N.am      1 <0>        -0.6070
     22 C15        -2.3834   -2.0857   -4.9632 C.3       1 <0>         0.1089
     23 C16        -3.4702   -1.1172   -5.4403 C.3       1 <0>        -0.1374
     24 C17        -3.5591   -1.1685   -6.9672 C.3       1 <0>        -0.1197
     25 C18        -2.2232   -0.7315   -7.5726 C.3       1 <0>        -0.1371
     26 C19        -1.1236   -1.6897   -7.1194 C.3       1 <0>         0.1114
     27 H2          0.9926    1.8713    0.0109 H         1 <0>         0.0891
     28 H3         -0.5573    1.8515   -0.8641 H         1 <0>         0.0942
     29 H4         -0.5399    1.8375    0.9158 H         1 <0>         0.0810
     30 H5          0.0478   -3.8403   -3.6038 H         1 <0>         0.1818
     31 H6         -1.1430   -4.4522    0.1941 H         1 <0>         0.1236
     32 H7         -1.0988   -6.4104    1.6843 H         1 <0>         0.1374
     33 H8          0.1239   -6.3086    3.8178 H         1 <0>         0.1344
     34 H9          1.3057   -4.2497    4.4670 H         1 <0>         0.1377
     35 H10         1.2778   -2.2904    2.9778 H         1 <0>         0.1387
     36 H11        -2.6766   -3.1087   -5.1988 H         1 <0>         0.0700
     37 H12        -2.2475   -1.9810   -3.8868 H         1 <0>         0.0815
     38 H13        -4.4292   -1.4060   -5.0101 H         1 <0>         0.0756
     39 H14        -3.2194   -0.1046   -5.1242 H         1 <0>         0.0702
     40 H15        -3.7855   -2.1866   -7.2838 H         1 <0>         0.0644
     41 H16        -4.3485   -0.4985   -7.3077 H         1 <0>         0.0669
     42 H17        -2.2945   -0.7459   -8.6602 H         1 <0>         0.0770
     43 H18        -1.9841    0.2774   -7.2365 H         1 <0>         0.0689
     44 H19        -0.1568   -1.3238   -7.4652 H         1 <0>         0.0943
     45 H20        -1.3118   -2.6797   -7.5348 H         1 <0>         0.0689
@<TRIPOS>BOND
     1    1    2 1
     2    1   27 1
     3    1   28 1
     4    1   29 1
     5    2   12 2
     6    2    3 1
     7    3   10 2
     8    3    4 1
     9    4    5 2
    10    4    6 1
    11    6    7 2
    12    6   19 1
    13    7    8 1
    14    7   30 1
    15    8    9 1
    16    8   10 1
    17   10   11 1
    18   11   12 1
    19   11   13 1
    20   13   18 ar
    21   13   14 ar
    22   14   15 ar
    23   14   31 1
    24   15   16 ar
    25   15   32 1
    26   16   17 ar
    27   16   33 1
    28   17   18 ar
    29   17   34 1
    30   18   35 1
    31   19   20 2
    32   19   21 am
    33   21   26 1
    34   21   22 1
    35   22   23 1
    36   22   36 1
    37   22   37 1
    38   23   24 1
    39   23   38 1
    40   23   39 1
    41   24   25 1
    42   24   40 1
    43   24   41 1
    44   25   26 1
    45   25   42 1
    46   25   43 1
    47   26   44 1
    48   26   45 1
@<TRIPOS>MOLECULE
ZINC58998913
   48    51     0     0     0
SMALL
USER_CHARGES

@<TRIPOS>ATOM
      1 C1         -0.0178    1.4648    0.0101 C.3       1 <0>         0.0241
      2 N1          0.0021   -0.0041    0.0020 N.3       1 <0>        -0.5377
      3 C2         -1.3623   -0.5493    0.0197 C.3       1 <0>         0.0531
      4 C3         -1.3483   -2.0326   -0.3625 C.3       1 <0>        -0.0335
      5 C4         -0.3261   -2.7384    0.5185 C.2       1 <0>         0.0995
      6 C5          0.6159   -2.0082    1.1730 C.2       1 <0>        -0.2681
      7 S1          1.5334   -3.2499    2.0369 S.3       1 <0>         0.2439
      8 C6          0.6551   -4.5850    1.5000 C.2       1 <0>         0.2413
      9 N2         -0.2593   -4.0487    0.7207 N.2       1 <0>        -0.5505
     10 N3          0.8497   -5.9268    1.8063 N.am      1 <0>        -0.6087
     11 C7          1.8495   -6.2910    2.6336 C.2       1 <0>         0.5220
     12 O1          2.5793   -5.4480    3.1108 O.2       1 <0>        -0.4885
     13 C8          2.0605   -7.7458    2.9657 C.3       1 <0>        -0.1170
     14 C9          2.5332   -8.5343    1.7224 C.3       1 <0>        -0.1502
     15 C10         4.0426   -8.5125    1.8211 C.2       1 <0>         0.5153
     16 O2          4.8020   -8.7717    0.9117 O.2       1 <0>        -0.5142
     17 N4          4.4197   -8.1637    3.0633 N.am      1 <0>        -0.6103
     18 C11         3.2568   -7.9257    3.9263 C.3       1 <0>         0.1154
     19 C12         5.8125   -8.0373    3.4995 C.3       1 <0>         0.1558
     20 C13         6.5548   -7.0192    2.6093 C.3       1 <0>        -0.1337
     21 C14         7.9768   -7.6139    2.4567 C.3       1 <0>        -0.1210
     22 C15         7.7014   -9.1340    2.3449 C.3       1 <0>        -0.1207
     23 C16         6.5416   -9.3819    3.3314 C.3       1 <0>        -0.1308
     24 C17         0.7901   -0.5289    1.1354 C.3       1 <0>         0.1466
     25 H1          1.0047    1.8421    0.0024 H         1 <0>         0.0729
     26 H2         -0.5450    1.8259   -0.8730 H         1 <0>         0.0749
     27 H3         -0.5280    1.8163    0.9069 H         1 <0>         0.0296
     28 H4         -1.7821   -0.4385    1.0195 H         1 <0>         0.0409
     29 H5         -1.9797    0.0004   -0.6907 H         1 <0>         0.0878
     30 H6         -2.3358   -2.4643   -0.1989 H         1 <0>         0.0874
     31 H7         -1.0679   -2.1401   -1.4103 H         1 <0>         0.0906
     32 H8          0.2661   -6.6010    1.4247 H         1 <0>         0.4258
     33 H9          1.1544   -8.1836    3.3847 H         1 <0>         0.1374
     34 H10         2.1633   -9.5590    1.7572 H         1 <0>         0.1243
     35 H11         2.2035   -8.0395    0.8088 H         1 <0>         0.1060
     36 H12         3.4047   -7.0222    4.5179 H         1 <0>         0.0998
     37 H13         3.0904   -8.7821    4.5797 H         1 <0>         0.0887
     38 H14         5.8498   -7.7201    4.5417 H         1 <0>         0.0940
     39 H15         6.0691   -6.9373    1.6369 H         1 <0>         0.0771
     40 H16         6.5987   -6.0459    3.0981 H         1 <0>         0.0687
     41 H17         8.4565   -7.2407    1.5519 H         1 <0>         0.0683
     42 H18         8.5835   -7.3948    3.3354 H         1 <0>         0.0673
     43 H19         7.4009   -9.3936    1.3298 H         1 <0>         0.0728
     44 H20         8.5822   -9.7040    2.6407 H         1 <0>         0.0639
     45 H21         6.9334   -9.7169    4.2918 H         1 <0>         0.0697
     46 H22         5.8591  -10.1285    2.9252 H         1 <0>         0.0687
     47 H23         1.8434   -0.2856    0.9956 H         1 <0>         0.0947
     48 H24         0.4311   -0.0920    2.0672 H         1 <0>         0.0566
@<TRIPOS>BOND
     1    1    2 1
     2    1   25 1
     3    1   26 1
     4    1   27 1
     5    2   24 1
     6    2    3 1
     7    3    4 1
     8    3   28 1
     9    3   29 1
    10    4    5 1
    11    4   30 1
    12    4   31 1
    13    5    9 1
    14    5    6 2
    15    6    7 1
    16    6   24 1
    17    7    8 1
    18    8    9 2
    19    8   10 1
    20   10   11 am
    21   10   32 1
    22   11   12 2
    23   11   13 1
    24   13   18 1
    25   13   14 1
    26   13   33 1
    27   14   15 1
    28   14   34 1
    29   14   35 1
    30   15   16 2
    31   15   17 am
    32   17   18 1
    33   17   19 1
    34   18   36 1
    35   18   37 1
    36   19   23 1
    37   19   20 1
    38   19   38 1
    39   20   21 1
    40   20   39 1
    41   20   40 1
    42   21   22 1
    43   21   41 1
    44   21   42 1
    45   22   23 1
    46   22   43 1
    47   22   44 1
    48   23   45 1
    49   23   46 1
    50   24   47 1
    51   24   48 1
@<TRIPOS>MOLECULE
ZINC65009067
   39    41     0     0     0
SMALL
USER_CHARGES

@<TRIPOS>ATOM
      1 C1         -0.0184    1.5028    0.0103 C.3       1 <0>        -0.0855
      2 C2          0.0021   -0.0041    0.0020 C.2       1 <0>         0.0656
      3 C3          0.0052   -0.6778   -1.1780 C.2       1 <0>        -0.2074
      4 S1          0.0319   -2.3681   -0.5943 S.3       1 <0>        -0.0114
      5 C4          0.0359   -1.9950    1.1543 C.2       1 <0>         0.1926
      6 N1          0.0223   -0.6673    1.1349 N.2       1 <0>        -0.4889
      7 C5          0.0547   -2.9123    2.3052 C.2       1 <0>         0.0594
      8 C6          0.0502   -2.5511    3.6219 C.2       1 <0>        -0.0250
      9 C7          0.0724   -3.7319    4.3790 C.2       1 <0>        -0.7096
     10 C8          0.0898   -4.7732    3.5177 C.2       1 <0>         0.1875
     11 N2          0.0740   -4.2842    2.2461 N.pl3     1 <0>        -0.4271
     12 C9          0.0801   -5.0873    1.0209 C.3       1 <0>         0.0553
     13 C10         0.1164   -6.2308    3.8996 C.3       1 <0>        -0.1215
     14 S2          0.0777   -3.8384    6.1378 S.o2      1 <0>         2.6467
     15 O1          1.1203   -4.7386    6.4870 O.2       1 <0>        -0.9937
     16 O2          0.0276   -2.5047    6.6255 O.2       1 <0>        -0.9907
     17 N3         -1.3424   -4.5610    6.5889 N.2       1 <0>        -1.0110
     18 C11        -1.6007   -4.7664    7.8638 C.2       1 <0>         0.5193
     19 C12        -2.8102   -5.3887    8.2537 C.2       1 <0>        -0.1619
     20 C13        -3.0576   -5.5914    9.5742 C.2       1 <0>        -0.0109
     21 C14        -2.1120   -5.1815   10.5300 C.2       1 <0>        -0.2112
     22 C15        -0.9626   -4.5892   10.1434 C.2       1 <0>         0.1329
     23 N4         -0.6949   -4.3828    8.8232 N.pl3     1 <0>        -0.6243
     24 H1          1.0042    1.8801    0.0026 H         1 <0>         0.0767
     25 H2         -0.5455    1.8639   -0.8728 H         1 <0>         0.0761
     26 H3         -0.5286    1.8543    0.9071 H         1 <0>         0.0775
     27 H4         -0.0057   -0.2977   -2.1889 H         1 <0>         0.2006
     28 H5          0.0327   -1.5430    4.0090 H         1 <0>         0.1657
     29 H6          1.1091   -5.2723    0.7128 H         1 <0>         0.0887
     30 H7         -0.4199   -6.0379    1.2071 H         1 <0>         0.1017
     31 H8         -0.4445   -4.5494    0.2313 H         1 <0>         0.0891
     32 H9         -0.9047   -6.6006    3.9932 H         1 <0>         0.0988
     33 H10         0.6393   -6.7986    3.1301 H         1 <0>         0.0827
     34 H11         0.6337   -6.3475    4.8519 H         1 <0>         0.1056
     35 H12        -3.5291   -5.6988    7.5098 H         1 <0>         0.1645
     36 H13        -3.9762   -6.0647    9.8878 H         1 <0>         0.1493
     37 H14        -2.3066   -5.3412   11.5803 H         1 <0>         0.1552
     38 H15        -0.2449   -4.2793   10.8886 H         1 <0>         0.1753
     39 H16         0.1372   -3.9595    8.5598 H         1 <0>         0.4131
@<TRIPOS>BOND
     1    1    2 1
     2    1   24 1
     3    1   25 1
     4    1   26 1
     5    2    6 1
     6    2    3 2
     7    3    4 1
     8    3   27 1
     9    4    5 1
    10    5    6 2
    11    5    7 1
    12    7   11 1
    13    7    8 2
    14    8    9 1
    15    8   28 1
    16    9   10 2
    17    9   14 1
    18   10   11 1
    19   10   13 1
    20   11   12 1
    21   12   29 1
    22   12   30 1
    23   12   31 1
    24   13   32 1
    25   13   33 1
    26   13   34 1
    27   14   15 2
    28   14   16 2
    29   14   17 1
    30   17   18 2
    31   18   23 1
    32   18   19 1
    33   19   20 2
    34   19   35 1
    35   20   21 1
    36   20   36 1
    37   21   22 2
    38   21   37 1
    39   22   23 1
    40   22   38 1
    41   23   39 1
