@<TRIPOS>MOLECULE
CHEMBL558796
   54    57     0     0     0
SMALL
USER_CHARGES

@<TRIPOS>ATOM
      1 C1         -0.0106    1.5173    0.0045 C.3       1 <0>        -0.1847
      2 C2          0.0025   -0.0127   -0.0011 C.3       1 <0>         0.0239
      3 C3          0.7140   -0.5120   -1.2601 C.3       1 <0>        -0.1840
      4 N1          0.7126   -0.5006    1.1888 N.4       1 <0>        -0.3857
      5 C4          0.7265   -1.9693    1.1823 C.3       1 <0>        -0.0052
      6 C5          1.4824   -2.4778    2.4118 C.3       1 <0>         0.0280
      7 N2          0.8230   -1.9824    3.6283 N.3       1 <0>        -0.5232
      8 C6          0.7793   -0.5133    3.6370 C.3       1 <0>         0.0197
      9 C7          0.0292   -0.0210    2.3973 C.3       1 <0>        -0.0030
     10 C8          1.4870   -2.4964    4.8337 C.3       1 <0>         0.0368
     11 C9          0.6492   -2.1752    6.0444 C.2       1 <0>         0.5158
     12 O1         -0.3979   -1.5769    5.9159 O.2       1 <0>        -0.5035
     13 N3          1.0636   -2.5527    7.2701 N.am      1 <0>        -0.6620
     14 C10         0.3374   -2.1706    8.4019 C.ar      1 <0>         0.1258
     15 C11        -1.0486   -2.0844    8.3498 C.ar      1 <0>        -0.1197
     16 C12        -1.7323   -1.6999    9.5004 C.ar      1 <0>         0.1532
     17 C13        -0.9976   -1.4159   10.6622 C.ar      1 <0>         0.1096
     18 C14        -1.7218   -1.0083   11.8821 C.ar      1 <0>        -0.0051
     19 C15        -1.0511   -0.7132   13.0644 C.ar      1 <0>        -0.0908
     20 C16        -1.7694   -0.3358   14.1803 C.ar      1 <0>        -0.0854
     21 C17        -3.1528   -0.2483   14.1327 C.ar      1 <0>        -0.1164
     22 C18        -3.8355   -0.5367   12.9702 C.ar      1 <0>        -0.0514
     23 C19        -3.1279   -0.9200   11.8318 C.ar      1 <0>        -0.1347
     24 C20        -3.8170   -1.2359   10.5716 C.2       1 <0>         0.5599
     25 N4         -3.1126   -1.6026    9.4858 N.am      1 <0>        -0.6375
     26 O2         -5.0303   -1.1652   10.5108 O.2       1 <0>        -0.5080
     27 N5          0.3268   -1.5117   10.6647 N.ar      1 <0>        -0.4156
     28 C21         0.9959   -1.8784    9.5941 C.ar      1 <0>         0.0696
     29 H1          1.0138    1.8894   -0.0057 H         1 <0>         0.0805
     30 H2         -0.5375    1.8793   -0.8784 H         1 <0>         0.1067
     31 H3         -0.5176    1.8730    0.9014 H         1 <0>         0.0822
     32 H4         -1.0220   -0.3849    0.0091 H         1 <0>         0.1376
     33 H5          1.7385   -0.1399   -1.2703 H         1 <0>         0.0805
     34 H6          0.7234   -1.6020   -1.2640 H         1 <0>         0.0819
     35 H7          0.1872   -0.1500   -2.1430 H         1 <0>         0.1066
     36 H8         -0.2973   -2.3425    1.2053 H         1 <0>         0.1388
     37 H9          1.2223   -2.3240    0.2787 H         1 <0>         0.1395
     38 H10         1.4801   -3.5678    2.4151 H         1 <0>         0.1263
     39 H11         2.5102   -2.1161    2.3822 H         1 <0>         0.0637
     40 H12         0.2640   -0.1701    4.5341 H         1 <0>         0.1382
     41 H13         1.7955   -0.1192    3.6276 H         1 <0>         0.0584
     42 H14         0.0080    1.0688    2.3945 H         1 <0>         0.1377
     43 H15        -0.9911   -0.4042    2.4141 H         1 <0>         0.1394
     44 H16         1.6059   -3.5767    4.7503 H         1 <0>         0.1243
     45 H17         2.4669   -2.0299    4.9357 H         1 <0>         0.0840
     46 H18         1.8657   -3.0895    7.3669 H         1 <0>         0.4201
     47 H19        -1.5827   -2.3098    7.4386 H         1 <0>         0.1594
     48 H20         0.0259   -0.7796   13.1088 H         1 <0>         0.1448
     49 H21        -1.2499   -0.1067   15.0990 H         1 <0>         0.1374
     50 H22        -3.7006    0.0483   15.0150 H         1 <0>         0.1383
     51 H23        -4.9128   -0.4658   12.9415 H         1 <0>         0.1441
     52 H24         2.0727   -1.9491    9.6381 H         1 <0>         0.1686
     53 H25        -3.5882   -1.8060    8.6652 H         1 <0>         0.4171
     54 H26         1.6607   -0.1555    1.1794 H         1 <0>         0.4173
@<TRIPOS>BOND
     1    1    2 1
     2    1   29 1
     3    1   30 1
     4    1   31 1
     5    2    3 1
     6    2    4 1
     7    2   32 1
     8    3   33 1
     9    3   34 1
    10    3   35 1
    11    4    9 1
    12    4    5 1
    13    4   54 1
    14    5    6 1
    15    5   36 1
    16    5   37 1
    17    6    7 1
    18    6   38 1
    19    6   39 1
    20    7    8 1
    21    7   10 1
    22    8    9 1
    23    8   40 1
    24    8   41 1
    25    9   42 1
    26    9   43 1
    27   10   11 1
    28   10   44 1
    29   10   45 1
    30   11   12 2
    31   11   13 am
    32   13   14 1
    33   13   46 1
    34   14   28 ar
    35   14   15 ar
    36   15   16 ar
    37   15   47 1
    38   16   25 1
    39   16   17 ar
    40   17   18 1
    41   17   27 ar
    42   18   23 ar
    43   18   19 ar
    44   19   20 ar
    45   19   48 1
    46   20   21 ar
    47   20   49 1
    48   21   22 ar
    49   21   50 1
    50   22   23 ar
    51   22   51 1
    52   23   24 1
    53   24   25 am
    54   24   26 2
    55   25   53 1
    56   27   28 ar
    57   28   52 1
@<TRIPOS>MOLECULE
CHEMBL187566
   36    39     0     0     0
SMALL
USER_CHARGES

@<TRIPOS>ATOM
      1 C1          0.0234    1.3275   -0.7529 C.ar      1 <0>        -0.0951
      2 C2          0.2309    0.0650   -1.2797 C.ar      1 <0>        -0.1274
      3 C3          1.4211   -0.5940   -1.0515 C.ar      1 <0>        -0.0918
      4 C4          2.4177    0.0160   -0.2875 C.ar      1 <0>        -0.1493
      5 C5          2.2020    1.2902    0.2406 C.ar      1 <0>        -0.0670
      6 C6          1.0071    1.9379    0.0052 C.ar      1 <0>        -0.1247
      7 C7          3.6959   -0.6846   -0.0384 C.2       1 <0>         0.4668
      8 O1          4.7256   -0.0475    0.0815 O.2       1 <0>        -0.4522
      9 C8          3.7225   -2.1486    0.0643 C.2       1 <0>        -0.2414
     10 C9          2.6479   -2.9867    0.0792 C.2       1 <0>         0.1249
     11 N1          3.0653   -4.2766    0.1700 N.pl3     1 <0>        -0.4680
     12 C10         4.4434   -4.3216    0.2885 C.ar      1 <0>         0.1196
     13 C11         4.9176   -3.0067    0.1653 C.ar      1 <0>        -0.0757
     14 C12         6.2858   -2.7507    0.1311 C.ar      1 <0>        -0.0351
     15 C13         7.1818   -3.7961    0.2292 C.ar      1 <0>        -0.1456
     16 C14         6.7309   -5.0895    0.3967 C.ar      1 <0>        -0.0313
     17 C15         5.3604   -5.3659    0.4796 C.ar      1 <0>        -0.1423
     18 C16         4.9371   -6.7261    0.8245 C.2       1 <0>         0.5625
     19 O2          5.6759   -7.3772    1.5376 O.2       1 <0>        -0.5331
     20 N2          3.7965   -7.3125    0.4162 N.am      1 <0>        -0.7221
     21 C17         2.8791   -6.6503   -0.4807 C.3       1 <0>         0.0955
     22 C18         2.2124   -5.4467    0.1316 C.3       1 <0>         0.0782
     23 H1         -0.9086    1.8408   -0.9380 H         1 <0>         0.1278
     24 H2         -0.5409   -0.4058   -1.8706 H         1 <0>         0.1294
     25 H3          1.5815   -1.5797   -1.4627 H         1 <0>         0.1304
     26 H4          2.9688    1.7675    0.8328 H         1 <0>         0.1323
     27 H5          0.8390    2.9236    0.4132 H         1 <0>         0.1303
     28 H6          1.6161   -2.6718    0.0270 H         1 <0>         0.1863
     29 H7          6.6449   -1.7373    0.0277 H         1 <0>         0.1396
     30 H8          8.2426   -3.6006    0.1743 H         1 <0>         0.1378
     31 H9          7.4435   -5.8976    0.4707 H         1 <0>         0.1395
     32 H10         3.5853   -8.2047    0.7329 H         1 <0>         0.4106
     33 H11         3.4256   -6.3337   -1.3691 H         1 <0>         0.0802
     34 H12         2.1095   -7.3612   -0.7814 H         1 <0>         0.1141
     35 H13         1.9116   -5.6937    1.1497 H         1 <0>         0.0862
     36 H14         1.3193   -5.2097   -0.4465 H         1 <0>         0.1103
@<TRIPOS>BOND
     1    1    6 ar
     2    1    2 ar
     3    1   23 1
     4    2    3 ar
     5    2   24 1
     6    3    4 ar
     7    3   25 1
     8    4    5 ar
     9    4    7 1
    10    5    6 ar
    11    5   26 1
    12    6   27 1
    13    7    8 2
    14    7    9 1
    15    9   13 1
    16    9   10 2
    17   10   11 1
    18   10   28 1
    19   11   22 1
    20   11   12 1
    21   12   17 ar
    22   12   13 ar
    23   13   14 ar
    24   14   15 ar
    25   14   29 1
    26   15   16 ar
    27   15   30 1
    28   16   17 ar
    29   16   31 1
    30   17   18 1
    31   18   19 2
    32   18   20 am
    33   20   21 1
    34   20   32 1
    35   21   22 1
    36   21   33 1
    37   21   34 1
    38   22   35 1
    39   22   36 1
@<TRIPOS>MOLECULE
CHEMBL311091
   23    25     0     0     0
SMALL
USER_CHARGES

@<TRIPOS>ATOM
      1 C1         -0.0166    1.3758    0.0096 C.ar      1 <0>        -0.0815
      2 C2          1.1675    2.0974    0.0022 C.ar      1 <0>        -0.1223
      3 C3          2.3845    1.4493   -0.0128 C.ar      1 <0>        -0.0489
      4 C4          2.4246    0.0564   -0.0206 C.ar      1 <0>        -0.1355
      5 C5          1.2190   -0.6760   -0.0131 C.ar      1 <0>        -0.0089
      6 C6          0.0021   -0.0041    0.0020 C.ar      1 <0>        -0.1128
      7 C7          1.2974   -2.1467   -0.0224 C.ar      1 <0>        -0.0570
      8 C8          0.1519   -2.9431   -0.0163 C.ar      1 <0>        -0.1176
      9 C9          0.2993   -4.3149   -0.0261 C.ar      1 <0>         0.0724
     10 N1          1.4971   -4.8707   -0.0405 N.ar      1 <0>        -0.4492
     11 C10         2.6061   -4.1607   -0.0467 C.ar      1 <0>         0.0781
     12 C11         2.5553   -2.7705   -0.0381 C.ar      1 <0>         0.1231
     13 N2          3.7179   -2.0204   -0.0450 N.am      1 <0>        -0.6357
     14 C12         3.7010   -0.6748   -0.0371 C.2       1 <0>         0.5580
     15 O1          4.7498   -0.0580   -0.0441 O.2       1 <0>        -0.5146
     16 H1         -0.9617    1.8982    0.0260 H         1 <0>         0.1362
     17 H2          1.1363    3.1769    0.0078 H         1 <0>         0.1370
     18 H3          3.3023    2.0186   -0.0189 H         1 <0>         0.1429
     19 H4         -0.9243   -0.5593    0.0075 H         1 <0>         0.1372
     20 H5         -0.8305   -2.4948   -0.0039 H         1 <0>         0.1477
     21 H6         -0.5786   -4.9439   -0.0216 H         1 <0>         0.1656
     22 H7          3.5628   -4.6617   -0.0581 H         1 <0>         0.1663
     23 H8          4.5726   -2.4791   -0.0559 H         1 <0>         0.4194
@<TRIPOS>BOND
     1    1    6 ar
     2    1    2 ar
     3    1   16 1
     4    2    3 ar
     5    2   17 1
     6    3    4 ar
     7    3   18 1
     8    4   14 1
     9    4    5 ar
    10    5    6 ar
    11    5    7 1
    12    6   19 1
    13    7   12 ar
    14    7    8 ar
    15    8    9 ar
    16    8   20 1
    17    9   10 ar
    18    9   21 1
    19   10   11 ar
    20   11   12 ar
    21   11   22 1
    22   12   13 1
    23   13   14 am
    24   13   23 1
    25   14   15 2
@<TRIPOS>MOLECULE
CHEMBL186380
   54    58     0     0     0
SMALL
USER_CHARGES

@<TRIPOS>ATOM
      1 C1         -0.0167    1.3803    0.0096 C.ar      1 <0>        -0.0960
      2 C2          1.1671    2.0966    0.0022 C.ar      1 <0>        -0.1214
      3 C3          2.3794    1.4356   -0.0111 C.ar      1 <0>        -0.0974
      4 C4          2.4025    0.0428   -0.0177 C.ar      1 <0>        -0.0770
      5 C5          1.2061   -0.6736   -0.0137 C.ar      1 <0>        -0.0648
      6 C6          0.0021   -0.0041    0.0020 C.ar      1 <0>        -0.1151
      7 C7          1.2564   -2.1786   -0.0339 C.3       1 <0>        -0.0838
      8 C8          2.4462   -2.6328   -0.8753 C.3       1 <0>        -0.0750
      9 C9          3.7165   -1.9535   -0.4184 C.2       1 <0>        -0.1611
     10 C10         3.6903   -0.6916   -0.0249 C.2       1 <0>        -0.0461
     11 C11         4.9320    0.0395    0.4152 C.3       1 <0>        -0.1134
     12 C12         6.0470   -0.9588    0.7265 C.3       1 <0>        -0.0082
     13 N1          6.1644   -1.8875   -0.4092 N.4       1 <0>        -0.3838
     14 C13         4.9891   -2.7615   -0.4245 C.3       1 <0>         0.0434
     15 C14         7.3798   -2.6988   -0.2588 C.3       1 <0>        -0.0130
     16 C15         8.6108   -1.7946   -0.3484 C.3       1 <0>        -0.1320
     17 C16         9.8767   -2.6396   -0.1918 C.3       1 <0>        -0.0714
     18 C17        11.0892   -1.7490   -0.2801 C.2       1 <0>         0.3872
     19 N2         10.9068   -0.4767   -0.4640 N.2       1 <0>        -0.5185
     20 C18        11.9501    0.3857   -0.5529 C.ar      1 <0>         0.1442
     21 C19        11.7546    1.7541   -0.7511 C.ar      1 <0>        -0.1092
     22 C20        12.8428    2.5930   -0.8359 C.ar      1 <0>        -0.0696
     23 C21        14.1350    2.0956   -0.7267 C.ar      1 <0>        -0.1282
     24 C22        14.3534    0.7495   -0.5314 C.ar      1 <0>        -0.0397
     25 C23        13.2656   -0.1167   -0.4423 C.ar      1 <0>        -0.1942
     26 C24        13.4371   -1.5622   -0.2345 C.2       1 <0>         0.5499
     27 N3         12.3168   -2.3178   -0.1577 N.am      1 <0>        -0.6534
     28 O1         14.5434   -2.0593   -0.1311 O.2       1 <0>        -0.4959
     29 H1         -0.9610    1.9041    0.0260 H         1 <0>         0.1305
     30 H2          1.1428    3.1763    0.0064 H         1 <0>         0.1301
     31 H3          3.3034    1.9947   -0.0160 H         1 <0>         0.1260
     32 H4         -0.9251   -0.5579    0.0080 H         1 <0>         0.1309
     33 H5          1.3667   -2.5525    0.9840 H         1 <0>         0.0836
     34 H6          0.3349   -2.5676   -0.4670 H         1 <0>         0.0907
     35 H7          2.5623   -3.7124   -0.7792 H         1 <0>         0.0855
     36 H8          2.2624   -2.3841   -1.9205 H         1 <0>         0.0869
     37 H9          5.2583    0.7092   -0.3805 H         1 <0>         0.1067
     38 H10         4.7102    0.6237    1.3083 H         1 <0>         0.1245
     39 H11         6.9884   -0.4271    0.8653 H         1 <0>         0.1422
     40 H12         5.8010   -1.5142    1.6316 H         1 <0>         0.1332
     41 H13         5.0094   -3.4043    0.4555 H         1 <0>         0.1379
     42 H14         5.0155   -3.3814   -1.3206 H         1 <0>         0.1387
     43 H15         7.3656   -3.1983    0.7099 H         1 <0>         0.1328
     44 H16         7.4188   -3.4453   -1.0521 H         1 <0>         0.1347
     45 H17         8.6249   -1.2951   -1.3171 H         1 <0>         0.1014
     46 H18         8.5718   -1.0481    0.4448 H         1 <0>         0.1008
     47 H19         9.8625   -3.1391    0.7769 H         1 <0>         0.1097
     48 H20         9.9157   -3.3861   -0.9851 H         1 <0>         0.1101
     49 H21        10.7545    2.1523   -0.8379 H         1 <0>         0.1387
     50 H22        12.6899    3.6510   -0.9896 H         1 <0>         0.1388
     51 H23        14.9758    2.7699   -0.7959 H         1 <0>         0.1393
     52 H24        15.3604    0.3684   -0.4473 H         1 <0>         0.1419
     53 H25        12.3913   -3.2747   -0.0174 H         1 <0>         0.4203
     54 H26         6.2085   -1.3645   -1.2709 H         1 <0>         0.4274
@<TRIPOS>BOND
     1    1    6 ar
     2    1    2 ar
     3    1   29 1
     4    2    3 ar
     5    2   30 1
     6    3    4 ar
     7    3   31 1
     8    4   10 1
     9    4    5 ar
    10    5    6 ar
    11    5    7 1
    12    6   32 1
    13    7    8 1
    14    7   33 1
    15    7   34 1
    16    8    9 1
    17    8   35 1
    18    8   36 1
    19    9   14 1
    20    9   10 2
    21   10   11 1
    22   11   12 1
    23   11   37 1
    24   11   38 1
    25   12   13 1
    26   12   39 1
    27   12   40 1
    28   13   14 1
    29   13   15 1
    30   13   54 1
    31   14   41 1
    32   14   42 1
    33   15   16 1
    34   15   43 1
    35   15   44 1
    36   16   17 1
    37   16   45 1
    38   16   46 1
    39   17   47 1
    40   17   48 1
    41   17   18 1
    42   18   19 2
    43   18   27 1
    44   19   20 1
    45   20   25 ar
    46   20   21 ar
    47   21   22 ar
    48   21   49 1
    49   22   23 ar
    50   22   50 1
    51   23   24 ar
    52   23   51 1
    53   24   25 ar
    54   24   52 1
    55   25   26 1
    56   26   28 2
    57   26   27 am
    58   27   53 1
@<TRIPOS>MOLECULE
CHEMBL492671
   59    63     0     0     0
SMALL
USER_CHARGES

@<TRIPOS>ATOM
      1 C1          5.4989   -0.7265   -1.8961 C.ar      1 <0>        -0.0870
      2 C2          6.6324   -1.1773   -2.5604 C.ar      1 <0>        -0.1100
      3 C3          6.8027   -2.5174   -2.8308 C.ar      1 <0>        -0.0545
      4 C4          5.8239   -3.4260   -2.4307 C.ar      1 <0>        -0.1253
      5 C5          4.6720   -2.9632   -1.7544 C.ar      1 <0>        -0.0605
      6 C6          4.5265   -1.5992   -1.4946 C.ar      1 <0>        -0.0976
      7 C7          3.6611   -3.9391   -1.3468 C.2       1 <0>         0.1365
      8 N1          3.8329   -5.2007   -1.6075 N.2       1 <0>        -0.2210
      9 N2          4.9589   -5.6862   -2.2729 N.am      1 <0>        -0.5332
     10 H1          5.0341   -6.6386   -2.4407 H         1 <0>         0.4372
     11 C8          5.9462   -4.8659   -2.6894 C.2       1 <0>         0.5285
     12 O1          6.9203   -5.3118   -3.2690 O.2       1 <0>        -0.5196
     13 C9          2.4205   -3.4813   -0.6239 C.3       1 <0>        -0.0171
     14 C10         1.5485   -4.6721   -0.3192 C.ar      1 <0>        -0.0899
     15 C11         0.5924   -5.0793   -1.2342 C.ar      1 <0>        -0.0509
     16 C12        -0.2123   -6.1700   -0.9643 C.ar      1 <0>        -0.1523
     17 C13        -0.0665   -6.8629    0.2240 C.ar      1 <0>         0.1487
     18 C14         0.8978   -6.4562    1.1513 C.ar      1 <0>        -0.1631
     19 C15         1.7093   -5.3557    0.8670 C.ar      1 <0>        -0.0460
     20 C16         1.0605   -7.1896    2.4229 C.2       1 <0>         0.5677
     21 O2          1.2392   -8.3921    2.4125 O.2       1 <0>        -0.5171
     22 N3          1.0108   -6.5258    3.5948 N.am      1 <0>        -0.6079
     23 C17         0.6642   -5.0981    3.6316 C.3       1 <0>         0.0903
     24 C18        -0.5260   -4.9070    4.5798 C.3       1 <0>         0.0974
     25 N4         -0.2351   -5.5980    5.8438 N.am      1 <0>        -0.6135
     26 C19         0.1115   -7.0257    5.8070 C.3       1 <0>         0.0890
     27 C20         1.2962   -7.2182    4.8593 C.3       1 <0>         0.0959
     28 C21        -0.2848   -4.9342    7.0157 C.2       1 <0>         0.5052
     29 O3         -0.5716   -3.7559    7.0335 O.2       1 <0>        -0.5166
     30 C22         0.0161   -5.6560    8.3039 C.3       1 <0>         0.0657
     31 C23        -1.0611   -6.7304    8.5661 C.3       1 <0>        -0.1487
     32 C24        -1.2679   -6.6220   10.1015 C.3       1 <0>        -0.1552
     33 C25        -1.0557   -5.1028   10.3203 C.3       1 <0>         0.0467
     34 O4         -0.0186   -4.7323    9.3981 O.3       1 <0>        -0.3509
     35 F1         -0.8535   -7.9289    0.4879 F         1 <0>        -0.1248
     36 H2          5.3864    0.3277   -1.6900 H         1 <0>         0.1370
     37 H3          7.3880   -0.4698   -2.8685 H         1 <0>         0.1377
     38 H4          7.6862   -2.8608   -3.3483 H         1 <0>         0.1436
     39 H5          3.6499   -1.2354   -0.9792 H         1 <0>         0.1422
     40 H6          2.7029   -2.9900    0.3072 H         1 <0>         0.1096
     41 H7          1.8714   -2.7803   -1.2526 H         1 <0>         0.1119
     42 H8          0.4746   -4.5417   -2.1634 H         1 <0>         0.1383
     43 H9         -0.9565   -6.4817   -1.6822 H         1 <0>         0.1445
     44 H10         2.4586   -5.0383    1.5771 H         1 <0>         0.1360
     45 H11         1.5167   -4.5239    3.9943 H         1 <0>         0.0800
     46 H12         0.3924   -4.7617    2.6310 H         1 <0>         0.1024
     47 H13        -0.6753   -3.8441    4.7699 H         1 <0>         0.1087
     48 H14        -1.4240   -5.3303    4.1297 H         1 <0>         0.0749
     49 H15         0.3833   -7.3621    6.8076 H         1 <0>         0.1008
     50 H16        -0.7410   -7.5999    5.4443 H         1 <0>         0.0806
     51 H17         1.4418   -8.2816    4.6693 H         1 <0>         0.1096
     52 H18         2.1948   -6.7984    5.3114 H         1 <0>         0.0779
     53 H19         0.9993   -6.1229    8.2451 H         1 <0>         0.1077
     54 H20        -1.9822   -6.4945    8.0331 H         1 <0>         0.0831
     55 H21        -0.6962   -7.7205    8.2928 H         1 <0>         0.0949
     56 H22        -2.2768   -6.9225   10.3842 H         1 <0>         0.0896
     57 H23        -0.5209   -7.2046   10.6406 H         1 <0>         0.0849
     58 H24        -1.9725   -4.5568   10.0979 H         1 <0>         0.0645
     59 H25        -0.7380   -4.9088   11.3448 H         1 <0>         0.0936
@<TRIPOS>BOND
     1    1    6 ar
     2    1    2 ar
     3    1   36 1
     4    2    3 ar
     5    2   37 1
     6    3    4 ar
     7    3   38 1
     8    4   11 1
     9    4    5 ar
    10    5    6 ar
    11    5    7 1
    12    6   39 1
    13    7    8 2
    14    7   13 1
    15    8    9 1
    16    9   10 1
    17    9   11 am
    18   11   12 2
    19   13   14 1
    20   13   40 1
    21   13   41 1
    22   14   19 ar
    23   14   15 ar
    24   15   16 ar
    25   15   42 1
    26   16   17 ar
    27   16   43 1
    28   17   18 ar
    29   17   35 1
    30   18   19 ar
    31   18   20 1
    32   19   44 1
    33   20   21 2
    34   20   22 am
    35   22   27 1
    36   22   23 1
    37   23   24 1
    38   23   45 1
    39   23   46 1
    40   24   25 1
    41   24   47 1
    42   24   48 1
    43   25   26 1
    44   25   28 am
    45   26   27 1
    46   26   49 1
    47   26   50 1
    48   27   51 1
    49   27   52 1
    50   28   29 2
    51   28   30 1
    52   30   34 1
    53   30   31 1
    54   30   53 1
    55   31   32 1
    56   31   54 1
    57   31   55 1
    58   32   33 1
    59   32   56 1
    60   32   57 1
    61   33   34 1
    62   33   58 1
    63   33   59 1
@<TRIPOS>MOLECULE
CHEMBL492671__1
   59    63     0     0     0
SMALL
USER_CHARGES

@<TRIPOS>ATOM
      1 C1          5.4989   -0.7265   -1.8961 C.ar      1 <0>        -0.0870
      2 C2          6.6324   -1.1773   -2.5604 C.ar      1 <0>        -0.1100
      3 C3          6.8027   -2.5174   -2.8308 C.ar      1 <0>        -0.0545
      4 C4          5.8239   -3.4260   -2.4307 C.ar      1 <0>        -0.1253
      5 C5          4.6720   -2.9632   -1.7544 C.ar      1 <0>        -0.0605
      6 C6          4.5265   -1.5992   -1.4946 C.ar      1 <0>        -0.0976
      7 C7          3.6611   -3.9391   -1.3468 C.2       1 <0>         0.1364
      8 N1          3.8329   -5.2007   -1.6075 N.2       1 <0>        -0.2209
      9 N2          4.9589   -5.6862   -2.2729 N.am      1 <0>        -0.5332
     10 H1          5.0341   -6.6386   -2.4407 H         1 <0>         0.4373
     11 C8          5.9462   -4.8659   -2.6894 C.2       1 <0>         0.5284
     12 O1          6.9203   -5.3118   -3.2690 O.2       1 <0>        -0.5195
     13 C9          2.4205   -3.4813   -0.6239 C.3       1 <0>        -0.0170
     14 C10         1.5485   -4.6721   -0.3192 C.ar      1 <0>        -0.0900
     15 C11         0.5924   -5.0793   -1.2342 C.ar      1 <0>        -0.0507
     16 C12        -0.2123   -6.1700   -0.9643 C.ar      1 <0>        -0.1522
     17 C13        -0.0665   -6.8629    0.2240 C.ar      1 <0>         0.1489
     18 C14         0.8978   -6.4562    1.1513 C.ar      1 <0>        -0.1633
     19 C15         1.7093   -5.3557    0.8670 C.ar      1 <0>        -0.0461
     20 C16         1.0605   -7.1896    2.4229 C.2       1 <0>         0.5679
     21 O2          1.2392   -8.3921    2.4125 O.2       1 <0>        -0.5167
     22 N3          1.0108   -6.5258    3.5948 N.am      1 <0>        -0.6079
     23 C17         0.6642   -5.0981    3.6316 C.3       1 <0>         0.0904
     24 C18        -0.5260   -4.9070    4.5798 C.3       1 <0>         0.0979
     25 N4         -0.2351   -5.5980    5.8438 N.am      1 <0>        -0.6126
     26 C19         0.1115   -7.0257    5.8070 C.3       1 <0>         0.0853
     27 C20         1.2962   -7.2182    4.8593 C.3       1 <0>         0.0970
     28 C21        -0.2848   -4.9342    7.0157 C.2       1 <0>         0.5181
     29 O3         -0.5716   -3.7559    7.0335 O.2       1 <0>        -0.5134
     30 C22         0.0161   -5.6560    8.3039 C.3       1 <0>         0.0642
     31 C23         1.5114   -6.0584    8.3584 C.3       1 <0>        -0.1492
     32 C24         1.7349   -6.1552    9.8923 C.3       1 <0>        -0.1544
     33 C25         0.8086   -5.0429   10.4292 C.3       1 <0>         0.0472
     34 O4         -0.1772   -4.7781    9.4243 O.3       1 <0>        -0.3533
     35 F1         -0.8535   -7.9289    0.4879 F         1 <0>        -0.1246
     36 H2          5.3864    0.3277   -1.6900 H         1 <0>         0.1370
     37 H3          7.3880   -0.4698   -2.8685 H         1 <0>         0.1377
     38 H4          7.6862   -2.8608   -3.3483 H         1 <0>         0.1436
     39 H5          3.6499   -1.2354   -0.9792 H         1 <0>         0.1422
     40 H6          2.7029   -2.9900    0.3072 H         1 <0>         0.1095
     41 H7          1.8714   -2.7803   -1.2526 H         1 <0>         0.1119
     42 H8          0.4746   -4.5417   -2.1634 H         1 <0>         0.1383
     43 H9         -0.9565   -6.4817   -1.6822 H         1 <0>         0.1447
     44 H10         2.4586   -5.0383    1.5771 H         1 <0>         0.1358
     45 H11         1.5167   -4.5239    3.9943 H         1 <0>         0.0797
     46 H12         0.3924   -4.7617    2.6310 H         1 <0>         0.1029
     47 H13        -0.6753   -3.8441    4.7699 H         1 <0>         0.1095
     48 H14        -1.4240   -5.3303    4.1297 H         1 <0>         0.0762
     49 H15         0.3833   -7.3621    6.8076 H         1 <0>         0.1023
     50 H16        -0.7410   -7.5999    5.4443 H         1 <0>         0.0811
     51 H17         1.4418   -8.2816    4.6693 H         1 <0>         0.1098
     52 H18         2.1948   -6.7984    5.3114 H         1 <0>         0.0772
     53 H19        -0.6181   -6.5373    8.4001 H         1 <0>         0.0982
     54 H20         1.6769   -7.0216    7.8758 H         1 <0>         0.0949
     55 H21         2.1422   -5.2866    7.9174 H         1 <0>         0.0858
     56 H22         1.4276   -7.1310   10.2682 H         1 <0>         0.0833
     57 H23         2.7748   -5.9502   10.1464 H         1 <0>         0.0891
     58 H24         0.3220   -5.3773   11.3454 H         1 <0>         0.0758
     59 H25         1.3886   -4.1411   10.6249 H         1 <0>         0.0745
@<TRIPOS>BOND
     1    1    6 ar
     2    1    2 ar
     3    1   36 1
     4    2    3 ar
     5    2   37 1
     6    3    4 ar
     7    3   38 1
     8    4   11 1
     9    4    5 ar
    10    5    6 ar
    11    5    7 1
    12    6   39 1
    13    7    8 2
    14    7   13 1
    15    8    9 1
    16    9   10 1
    17    9   11 am
    18   11   12 2
    19   13   14 1
    20   13   40 1
    21   13   41 1
    22   14   19 ar
    23   14   15 ar
    24   15   16 ar
    25   15   42 1
    26   16   17 ar
    27   16   43 1
    28   17   18 ar
    29   17   35 1
    30   18   19 ar
    31   18   20 1
    32   19   44 1
    33   20   21 2
    34   20   22 am
    35   22   27 1
    36   22   23 1
    37   23   24 1
    38   23   45 1
    39   23   46 1
    40   24   25 1
    41   24   47 1
    42   24   48 1
    43   25   26 1
    44   25   28 am
    45   26   27 1
    46   26   49 1
    47   26   50 1
    48   27   51 1
    49   27   52 1
    50   28   29 2
    51   28   30 1
    52   30   34 1
    53   30   31 1
    54   30   53 1
    55   31   32 1
    56   31   54 1
    57   31   55 1
    58   32   33 1
    59   32   56 1
    60   32   57 1
    61   33   34 1
    62   33   58 1
    63   33   59 1
@<TRIPOS>MOLECULE
CHEMBL524165
   59    63     0     0     0
SMALL
USER_CHARGES

@<TRIPOS>ATOM
      1 C1          5.4989   -0.7265   -1.8961 C.ar      1 <0>        -0.0870
      2 C2          6.6324   -1.1773   -2.5604 C.ar      1 <0>        -0.1100
      3 C3          6.8027   -2.5174   -2.8308 C.ar      1 <0>        -0.0544
      4 C4          5.8239   -3.4260   -2.4307 C.ar      1 <0>        -0.1252
      5 C5          4.6720   -2.9632   -1.7544 C.ar      1 <0>        -0.0605
      6 C6          4.5265   -1.5992   -1.4946 C.ar      1 <0>        -0.0976
      7 C7          3.6611   -3.9391   -1.3468 C.2       1 <0>         0.1363
      8 N1          3.8329   -5.2007   -1.6075 N.2       1 <0>        -0.2209
      9 N2          4.9589   -5.6862   -2.2729 N.am      1 <0>        -0.5332
     10 H1          5.0341   -6.6386   -2.4407 H         1 <0>         0.4373
     11 C8          5.9462   -4.8659   -2.6894 C.2       1 <0>         0.5284
     12 O1          6.9203   -5.3118   -3.2690 O.2       1 <0>        -0.5194
     13 C9          2.4205   -3.4813   -0.6239 C.3       1 <0>        -0.0170
     14 C10         1.5485   -4.6721   -0.3192 C.ar      1 <0>        -0.0898
     15 C11         0.5924   -5.0793   -1.2342 C.ar      1 <0>        -0.0507
     16 C12        -0.2123   -6.1700   -0.9643 C.ar      1 <0>        -0.1523
     17 C13        -0.0665   -6.8629    0.2240 C.ar      1 <0>         0.1488
     18 C14         0.8978   -6.4562    1.1513 C.ar      1 <0>        -0.1632
     19 C15         1.7093   -5.3557    0.8670 C.ar      1 <0>        -0.0461
     20 C16         1.0605   -7.1896    2.4229 C.2       1 <0>         0.5678
     21 O2          1.2392   -8.3921    2.4125 O.2       1 <0>        -0.5162
     22 N3          1.0108   -6.5258    3.5948 N.am      1 <0>        -0.6080
     23 C17         0.6642   -5.0981    3.6316 C.3       1 <0>         0.0898
     24 C18        -0.5260   -4.9070    4.5798 C.3       1 <0>         0.0971
     25 N4         -0.2351   -5.5980    5.8438 N.am      1 <0>        -0.6141
     26 C19         0.1115   -7.0257    5.8070 C.3       1 <0>         0.0864
     27 C20         1.2962   -7.2182    4.8593 C.3       1 <0>         0.0956
     28 C21        -0.2848   -4.9342    7.0157 C.2       1 <0>         0.5286
     29 O3         -0.5716   -3.7559    7.0335 O.2       1 <0>        -0.5277
     30 C22         0.0161   -5.6560    8.3039 C.3       1 <0>        -0.1492
     31 C23        -0.0117   -4.6698    9.4969 C.3       1 <0>        -0.1403
     32 C24         1.1949   -5.1498   10.3431 C.3       1 <0>         0.0449
     33 O4          2.1716   -5.5316    9.3508 O.3       1 <0>        -0.3714
     34 C25         1.4589   -6.1972    8.2947 C.3       1 <0>         0.0553
     35 F1         -0.8535   -7.9289    0.4879 F         1 <0>        -0.1248
     36 H2          5.3864    0.3277   -1.6900 H         1 <0>         0.1370
     37 H3          7.3880   -0.4698   -2.8685 H         1 <0>         0.1377
     38 H4          7.6862   -2.8608   -3.3483 H         1 <0>         0.1436
     39 H5          3.6499   -1.2354   -0.9792 H         1 <0>         0.1422
     40 H6          2.7029   -2.9900    0.3072 H         1 <0>         0.1096
     41 H7          1.8714   -2.7803   -1.2526 H         1 <0>         0.1119
     42 H8          0.4746   -4.5417   -2.1634 H         1 <0>         0.1383
     43 H9         -0.9565   -6.4817   -1.6822 H         1 <0>         0.1446
     44 H10         2.4586   -5.0383    1.5771 H         1 <0>         0.1360
     45 H11         1.5167   -4.5239    3.9943 H         1 <0>         0.0801
     46 H12         0.3924   -4.7617    2.6310 H         1 <0>         0.1030
     47 H13        -0.6753   -3.8441    4.7699 H         1 <0>         0.1094
     48 H14        -1.4240   -5.3303    4.1297 H         1 <0>         0.0757
     49 H15         0.3833   -7.3621    6.8076 H         1 <0>         0.1017
     50 H16        -0.7410   -7.5999    5.4443 H         1 <0>         0.0815
     51 H17         1.4418   -8.2816    4.6693 H         1 <0>         0.1108
     52 H18         2.1948   -6.7984    5.3114 H         1 <0>         0.0778
     53 H19        -0.6947   -6.4675    8.4605 H         1 <0>         0.1133
     54 H20         0.1346   -3.6444    9.1574 H         1 <0>         0.0976
     55 H21        -0.9418   -4.7636   10.0575 H         1 <0>         0.0874
     56 H22         1.5753   -4.3385   10.9638 H         1 <0>         0.0992
     57 H23         0.9166   -6.0062   10.9572 H         1 <0>         0.0652
     58 H24         1.4525   -7.2726    8.4724 H         1 <0>         0.0726
     59 H25         1.9299   -5.9806    7.3359 H         1 <0>         0.0863
@<TRIPOS>BOND
     1    1    6 ar
     2    1    2 ar
     3    1   36 1
     4    2    3 ar
     5    2   37 1
     6    3    4 ar
     7    3   38 1
     8    4   11 1
     9    4    5 ar
    10    5    6 ar
    11    5    7 1
    12    6   39 1
    13    7    8 2
    14    7   13 1
    15    8    9 1
    16    9   10 1
    17    9   11 am
    18   11   12 2
    19   13   14 1
    20   13   40 1
    21   13   41 1
    22   14   19 ar
    23   14   15 ar
    24   15   16 ar
    25   15   42 1
    26   16   17 ar
    27   16   43 1
    28   17   18 ar
    29   17   35 1
    30   18   19 ar
    31   18   20 1
    32   19   44 1
    33   20   21 2
    34   20   22 am
    35   22   27 1
    36   22   23 1
    37   23   24 1
    38   23   45 1
    39   23   46 1
    40   24   25 1
    41   24   47 1
    42   24   48 1
    43   25   26 1
    44   25   28 am
    45   26   27 1
    46   26   49 1
    47   26   50 1
    48   27   51 1
    49   27   52 1
    50   28   29 2
    51   28   30 1
    52   30   34 1
    53   30   31 1
    54   30   53 1
    55   31   32 1
    56   31   54 1
    57   31   55 1
    58   32   33 1
    59   32   56 1
    60   32   57 1
    61   33   34 1
    62   34   58 1
    63   34   59 1
@<TRIPOS>MOLECULE
CHEMBL524165__1
   59    63     0     0     0
SMALL
USER_CHARGES

@<TRIPOS>ATOM
      1 C1          5.4989   -0.7265   -1.8961 C.ar      1 <0>        -0.0870
      2 C2          6.6324   -1.1773   -2.5604 C.ar      1 <0>        -0.1100
      3 C3          6.8027   -2.5174   -2.8308 C.ar      1 <0>        -0.0544
      4 C4          5.8239   -3.4260   -2.4307 C.ar      1 <0>        -0.1253
      5 C5          4.6720   -2.9632   -1.7544 C.ar      1 <0>        -0.0605
      6 C6          4.5265   -1.5992   -1.4946 C.ar      1 <0>        -0.0977
      7 C7          3.6611   -3.9391   -1.3468 C.2       1 <0>         0.1362
      8 N1          3.8329   -5.2007   -1.6075 N.2       1 <0>        -0.2208
      9 N2          4.9589   -5.6862   -2.2729 N.am      1 <0>        -0.5332
     10 H1          5.0341   -6.6386   -2.4407 H         1 <0>         0.4373
     11 C8          5.9462   -4.8659   -2.6894 C.2       1 <0>         0.5284
     12 O1          6.9203   -5.3118   -3.2690 O.2       1 <0>        -0.5194
     13 C9          2.4205   -3.4813   -0.6239 C.3       1 <0>        -0.0169
     14 C10         1.5485   -4.6721   -0.3192 C.ar      1 <0>        -0.0900
     15 C11         0.5924   -5.0793   -1.2342 C.ar      1 <0>        -0.0507
     16 C12        -0.2123   -6.1700   -0.9643 C.ar      1 <0>        -0.1522
     17 C13        -0.0665   -6.8629    0.2240 C.ar      1 <0>         0.1490
     18 C14         0.8978   -6.4562    1.1513 C.ar      1 <0>        -0.1634
     19 C15         1.7093   -5.3557    0.8670 C.ar      1 <0>        -0.0462
     20 C16         1.0605   -7.1896    2.4229 C.2       1 <0>         0.5677
     21 O2          1.2392   -8.3921    2.4125 O.2       1 <0>        -0.5160
     22 N3          1.0108   -6.5258    3.5948 N.am      1 <0>        -0.6086
     23 C17         0.6642   -5.0981    3.6316 C.3       1 <0>         0.0906
     24 C18        -0.5260   -4.9070    4.5798 C.3       1 <0>         0.0966
     25 N4         -0.2351   -5.5980    5.8438 N.am      1 <0>        -0.6130
     26 C19         0.1115   -7.0257    5.8070 C.3       1 <0>         0.0858
     27 C20         1.2962   -7.2182    4.8593 C.3       1 <0>         0.0971
     28 C21        -0.2848   -4.9342    7.0157 C.2       1 <0>         0.5303
     29 O3         -0.5716   -3.7559    7.0335 O.2       1 <0>        -0.5278
     30 C22         0.0161   -5.6560    8.3039 C.3       1 <0>        -0.1495
     31 C23        -0.2413   -4.7343    9.5271 C.3       1 <0>        -0.1352
     32 C24        -0.5861   -5.7808   10.6165 C.3       1 <0>         0.0488
     33 O4         -1.3256   -6.8047    9.9324 O.3       1 <0>        -0.3778
     34 C25        -0.9911   -6.8021    8.5397 C.3       1 <0>         0.0621
     35 F1         -0.8535   -7.9289    0.4879 F         1 <0>        -0.1245
     36 H2          5.3864    0.3277   -1.6900 H         1 <0>         0.1370
     37 H3          7.3880   -0.4698   -2.8685 H         1 <0>         0.1378
     38 H4          7.6862   -2.8608   -3.3483 H         1 <0>         0.1436
     39 H5          3.6499   -1.2354   -0.9792 H         1 <0>         0.1421
     40 H6          2.7029   -2.9900    0.3072 H         1 <0>         0.1094
     41 H7          1.8714   -2.7803   -1.2526 H         1 <0>         0.1119
     42 H8          0.4746   -4.5417   -2.1634 H         1 <0>         0.1384
     43 H9         -0.9565   -6.4817   -1.6822 H         1 <0>         0.1448
     44 H10         2.4586   -5.0383    1.5771 H         1 <0>         0.1357
     45 H11         1.5167   -4.5239    3.9943 H         1 <0>         0.0795
     46 H12         0.3924   -4.7617    2.6310 H         1 <0>         0.1028
     47 H13        -0.6753   -3.8441    4.7699 H         1 <0>         0.1095
     48 H14        -1.4240   -5.3303    4.1297 H         1 <0>         0.0761
     49 H15         0.3833   -7.3621    6.8076 H         1 <0>         0.1029
     50 H16        -0.7410   -7.5999    5.4443 H         1 <0>         0.0821
     51 H17         1.4418   -8.2816    4.6693 H         1 <0>         0.1102
     52 H18         2.1948   -6.7984    5.3114 H         1 <0>         0.0773
     53 H19         1.0391   -6.0321    8.3061 H         1 <0>         0.1146
     54 H20         0.6548   -4.1728    9.7913 H         1 <0>         0.0907
     55 H21        -1.0823   -4.0653    9.3448 H         1 <0>         0.0932
     56 H22         0.3263   -6.1954   11.0451 H         1 <0>         0.0658
     57 H23        -1.1992   -5.3278   11.3957 H         1 <0>         0.0920
     58 H24        -1.8884   -6.6341    7.9441 H         1 <0>         0.0737
     59 H25        -0.5376   -7.7549    8.2665 H         1 <0>         0.0794
@<TRIPOS>BOND
     1    1    6 ar
     2    1    2 ar
     3    1   36 1
     4    2    3 ar
     5    2   37 1
     6    3    4 ar
     7    3   38 1
     8    4   11 1
     9    4    5 ar
    10    5    6 ar
    11    5    7 1
    12    6   39 1
    13    7    8 2
    14    7   13 1
    15    8    9 1
    16    9   10 1
    17    9   11 am
    18   11   12 2
    19   13   14 1
    20   13   40 1
    21   13   41 1
    22   14   19 ar
    23   14   15 ar
    24   15   16 ar
    25   15   42 1
    26   16   17 ar
    27   16   43 1
    28   17   18 ar
    29   17   35 1
    30   18   19 ar
    31   18   20 1
    32   19   44 1
    33   20   21 2
    34   20   22 am
    35   22   27 1
    36   22   23 1
    37   23   24 1
    38   23   45 1
    39   23   46 1
    40   24   25 1
    41   24   47 1
    42   24   48 1
    43   25   26 1
    44   25   28 am
    45   26   27 1
    46   26   49 1
    47   26   50 1
    48   27   51 1
    49   27   52 1
    50   28   29 2
    51   28   30 1
    52   30   34 1
    53   30   31 1
    54   30   53 1
    55   31   32 1
    56   31   54 1
    57   31   55 1
    58   32   33 1
    59   32   56 1
    60   32   57 1
    61   33   34 1
    62   34   58 1
    63   34   59 1
@<TRIPOS>MOLECULE
CHEMBL524190
   61    65     0     0     0
SMALL
USER_CHARGES

@<TRIPOS>ATOM
      1 C1          6.5748    0.3258   -0.0006 C.ar      1 <0>        -0.0871
      2 C2          7.8856    0.0478   -0.3664 C.ar      1 <0>        -0.1100
      3 C3          8.2773   -1.2415   -0.6531 C.ar      1 <0>        -0.0542
      4 C4          7.3439   -2.2741   -0.5730 C.ar      1 <0>        -0.1251
      5 C5          6.0110   -1.9870   -0.1999 C.ar      1 <0>        -0.0604
      6 C6          5.6430   -0.6706    0.0844 C.ar      1 <0>        -0.0979
      7 C7          5.0528   -3.0901   -0.1247 C.2       1 <0>         0.1355
      8 N1          5.4343   -4.3023   -0.3975 N.2       1 <0>        -0.2205
      9 N2          6.7423   -4.6153   -0.7682 N.am      1 <0>        -0.5331
     10 H1          6.9705   -5.5383   -0.9604 H         1 <0>         0.4374
     11 C8          7.6984   -3.6682   -0.8664 C.2       1 <0>         0.5282
     12 O1          8.8341   -3.9644   -1.1923 O.2       1 <0>        -0.5191
     13 C9          3.6235   -2.8208    0.2697 C.3       1 <0>        -0.0163
     14 C10         2.8505   -4.1144    0.2709 C.ar      1 <0>        -0.0920
     15 C11         2.2151   -4.5397   -0.8834 C.ar      1 <0>        -0.0495
     16 C12         1.5037   -5.7245   -0.8927 C.ar      1 <0>        -0.1536
     17 C13         1.4225   -6.4943    0.2536 C.ar      1 <0>         0.1527
     18 C14         2.0626   -6.0698    1.4220 C.ar      1 <0>        -0.1646
     19 C15         2.7831   -4.8733    1.4198 C.ar      1 <0>        -0.0477
     20 C16         1.9812   -6.8848    2.6510 C.2       1 <0>         0.5653
     21 O2          2.1772   -8.0835    2.5994 O.2       1 <0>        -0.5160
     22 N3          1.6896   -6.2997    3.8295 N.am      1 <0>        -0.6078
     23 C17         1.3272   -4.8767    3.8887 C.3       1 <0>         0.0847
     24 C18        -0.0314   -4.7457    4.5882 C.3       1 <0>         0.0911
     25 N4          0.0069   -5.5193    5.8371 N.am      1 <0>        -0.6146
     26 C19         0.3693   -6.9424    5.7779 C.3       1 <0>         0.0972
     27 C20         1.7224   -7.0748    5.0778 C.3       1 <0>         0.0993
     28 C21        -0.2848   -4.9342    7.0157 C.2       1 <0>         0.5237
     29 O3         -0.1728   -5.5609    8.0480 O.2       1 <0>        -0.5323
     30 C22        -0.7499   -3.5012    7.0508 C.3       1 <0>        -0.1144
     31 C23        -2.2006   -3.3890    6.5198 C.3       1 <0>        -0.1126
     32 C24        -2.7021   -2.0759    7.1704 C.3       1 <0>        -0.1233
     33 C25        -2.0811   -2.0921    8.5825 C.3       1 <0>        -0.1257
     34 C26        -0.8399   -2.9983    8.5065 C.3       1 <0>        -0.1145
     35 F1          0.7267   -7.6523    0.2445 F         1 <0>        -0.1226
     36 H2          6.2889    1.3428    0.2242 H         1 <0>         0.1369
     37 H3          8.6052    0.8509   -0.4270 H         1 <0>         0.1377
     38 H4          9.2980   -1.4504   -0.9375 H         1 <0>         0.1436
     39 H5          4.6270   -0.4406    0.3697 H         1 <0>         0.1421
     40 H6          3.5983   -2.3815    1.2670 H         1 <0>         0.1091
     41 H7          3.1739   -2.1296   -0.4432 H         1 <0>         0.1117
     42 H8          2.2755   -3.9422   -1.7811 H         1 <0>         0.1383
     43 H9          1.0100   -6.0497   -1.7965 H         1 <0>         0.1447
     44 H10         3.2830   -4.5412    2.3177 H         1 <0>         0.1366
     45 H11         2.0831   -4.3298    4.4524 H         1 <0>         0.0793
     46 H12         1.2586   -4.4743    2.8780 H         1 <0>         0.1049
     47 H13        -0.2274   -3.6973    4.8132 H         1 <0>         0.1029
     48 H14        -0.8158   -5.1361    3.9399 H         1 <0>         0.0778
     49 H15         0.4378   -7.3447    6.7886 H         1 <0>         0.1078
     50 H16        -0.3866   -7.4892    5.2143 H         1 <0>         0.0742
     51 H17         1.9148   -8.1237    4.8522 H         1 <0>         0.1078
     52 H18         2.5071   -6.6880    5.7280 H         1 <0>         0.0764
     53 H19        -0.0788   -2.8689    6.4696 H         1 <0>         0.0990
     54 H20        -2.2090   -3.3093    5.4328 H         1 <0>         0.0732
     55 H21        -2.7997   -4.2374    6.8506 H         1 <0>         0.0725
     56 H22        -2.3481   -1.2120    6.6079 H         1 <0>         0.0693
     57 H23        -3.7903   -2.0722    7.2323 H         1 <0>         0.0698
     58 H24        -1.7894   -1.0830    8.8737 H         1 <0>         0.0662
     59 H25        -2.7953   -2.4964    9.2998 H         1 <0>         0.0660
     60 H26        -0.9517   -3.8425    9.1869 H         1 <0>         0.0852
     61 H27         0.0542   -2.4291    8.7608 H         1 <0>         0.0671
@<TRIPOS>BOND
     1    1    6 ar
     2    1    2 ar
     3    1   36 1
     4    2    3 ar
     5    2   37 1
     6    3    4 ar
     7    3   38 1
     8    4   11 1
     9    4    5 ar
    10    5    6 ar
    11    5    7 1
    12    6   39 1
    13    7    8 2
    14    7   13 1
    15    8    9 1
    16    9   10 1
    17    9   11 am
    18   11   12 2
    19   13   14 1
    20   13   40 1
    21   13   41 1
    22   14   19 ar
    23   14   15 ar
    24   15   16 ar
    25   15   42 1
    26   16   17 ar
    27   16   43 1
    28   17   18 ar
    29   17   35 1
    30   18   19 ar
    31   18   20 1
    32   19   44 1
    33   20   21 2
    34   20   22 am
    35   22   27 1
    36   22   23 1
    37   23   24 1
    38   23   45 1
    39   23   46 1
    40   24   25 1
    41   24   47 1
    42   24   48 1
    43   25   26 1
    44   25   28 am
    45   26   27 1
    46   26   49 1
    47   26   50 1
    48   27   51 1
    49   27   52 1
    50   28   29 2
    51   28   30 1
    52   30   34 1
    53   30   31 1
    54   30   53 1
    55   31   32 1
    56   31   54 1
    57   31   55 1
    58   32   33 1
    59   32   56 1
    60   32   57 1
    61   33   34 1
    62   33   58 1
    63   33   59 1
    64   34   60 1
    65   34   61 1
@<TRIPOS>MOLECULE
CHEMBL522487
   64    68     0     0     0
SMALL
USER_CHARGES

@<TRIPOS>ATOM
      1 C1          5.2583    0.6229   -1.1128 C.ar      1 <0>        -0.0870
      2 C2          6.5121    0.4204   -1.6751 C.ar      1 <0>        -0.1100
      3 C3          6.9490   -0.8499   -1.9806 C.ar      1 <0>        -0.0545
      4 C4          6.1196   -1.9399   -1.7200 C.ar      1 <0>        -0.1253
      5 C5          4.8445   -1.7296   -1.1473 C.ar      1 <0>        -0.0605
      6 C6          4.4285   -0.4307   -0.8488 C.ar      1 <0>        -0.0976
      7 C7          3.9952   -2.8918   -0.8853 C.2       1 <0>         0.1364
      8 N1          4.4184   -4.0854   -1.1778 N.2       1 <0>        -0.2209
      9 N2          5.6714   -4.3232   -1.7434 N.am      1 <0>        -0.5332
     10 H1          5.9347   -5.2356   -1.9409 H         1 <0>         0.4373
     11 C8          6.5266   -3.3176   -2.0229 C.2       1 <0>         0.5284
     12 O1          7.6157   -3.5485   -2.5171 O.2       1 <0>        -0.5196
     13 C9          2.6298   -2.7049   -0.2756 C.3       1 <0>        -0.0170
     14 C10         1.9655   -4.0475   -0.1103 C.ar      1 <0>        -0.0908
     15 C11         1.1897   -4.5642   -1.1342 C.ar      1 <0>        -0.0503
     16 C12         0.5763   -5.7945   -0.9926 C.ar      1 <0>        -0.1529
     17 C13         0.7344   -6.5185    0.1754 C.ar      1 <0>         0.1504
     18 C14         1.5171   -6.0016    1.2123 C.ar      1 <0>        -0.1638
     19 C15         2.1368   -4.7596    1.0576 C.ar      1 <0>        -0.0466
     20 C16         1.6914   -6.7673    2.4632 C.2       1 <0>         0.5668
     21 O2          2.0382   -7.9316    2.4198 O.2       1 <0>        -0.5172
     22 N3          1.4659   -6.1751    3.6527 N.am      1 <0>        -0.6077
     23 C17         0.9357   -4.8060    3.7182 C.3       1 <0>         0.0891
     24 C18        -0.3388   -4.8143    4.5713 C.3       1 <0>         0.0966
     25 N4         -0.0593   -5.5264    5.8262 N.am      1 <0>        -0.6155
     26 C19         0.4710   -6.8955    5.7607 C.3       1 <0>         0.0894
     27 C20         1.7402   -6.8892    4.9076 C.3       1 <0>         0.0963
     28 C21        -0.2848   -4.9342    7.0157 C.2       1 <0>         0.5225
     29 O3         -0.8173   -3.8455    7.0599 O.2       1 <0>        -0.5334
     30 C22         0.1248   -5.6250    8.2909 C.3       1 <0>        -0.1057
     31 C23        -0.8458   -6.7706    8.5848 C.3       1 <0>        -0.1143
     32 C24        -0.4299   -7.4719    9.8795 C.3       1 <0>        -0.1179
     33 C25        -0.4596   -6.4693   11.0348 C.3       1 <0>        -0.1232
     34 C26         0.5109   -5.3236   10.7409 C.3       1 <0>        -0.1201
     35 C27         0.0951   -4.6223    9.4462 C.3       1 <0>        -0.0997
     36 F1          0.1343   -7.7210    0.3139 F         1 <0>        -0.1240
     37 H2          4.9362    1.6264   -0.8769 H         1 <0>         0.1370
     38 H3          7.1511    1.2677   -1.8752 H         1 <0>         0.1377
     39 H4          7.9249   -1.0000   -2.4183 H         1 <0>         0.1436
     40 H5          3.4559   -0.2593   -0.4117 H         1 <0>         0.1422
     41 H6          2.7293   -2.2264    0.6987 H         1 <0>         0.1095
     42 H7          2.0232   -2.0773   -0.9284 H         1 <0>         0.1119
     43 H8          1.0631   -4.0028   -2.0481 H         1 <0>         0.1383
     44 H9         -0.0280   -6.1911   -1.7950 H         1 <0>         0.1446
     45 H10         2.7457   -4.3559    1.8530 H         1 <0>         0.1361
     46 H11         1.6762   -4.1483    4.1732 H         1 <0>         0.0788
     47 H12         0.7007   -4.4563    2.7129 H         1 <0>         0.1028
     48 H13        -0.6386   -3.7897    4.7910 H         1 <0>         0.1077
     49 H14        -1.1370   -5.3239    4.0315 H         1 <0>         0.0734
     50 H15         0.7059   -7.2452    6.7660 H         1 <0>         0.1053
     51 H16        -0.2696   -7.5532    5.3057 H         1 <0>         0.0785
     52 H17         2.0364   -7.9148    4.6877 H         1 <0>         0.1086
     53 H18         2.5393   -6.3832    5.4493 H         1 <0>         0.0767
     54 H19         1.1337   -6.0227    8.1808 H         1 <0>         0.0944
     55 H20        -1.8546   -6.3729    8.6949 H         1 <0>         0.0703
     56 H21        -0.8246   -7.4849    7.7617 H         1 <0>         0.0690
     57 H22        -1.1214   -8.2881   10.0888 H         1 <0>         0.0676
     58 H23         0.5789   -7.8696    9.7694 H         1 <0>         0.0649
     59 H24        -1.4685   -6.0716   11.1449 H         1 <0>         0.0635
     60 H25        -0.1634   -6.9689   11.9571 H         1 <0>         0.0642
     61 H26         0.4898   -4.6093   11.5640 H         1 <0>         0.0669
     62 H27         1.5198   -5.7213   10.6308 H         1 <0>         0.0625
     63 H28         0.7866   -3.8062    9.2369 H         1 <0>         0.0661
     64 H29        -0.9138   -4.2246    9.5563 H         1 <0>         0.0734
@<TRIPOS>BOND
     1    1    6 ar
     2    1    2 ar
     3    1   37 1
     4    2    3 ar
     5    2   38 1
     6    3    4 ar
     7    3   39 1
     8    4   11 1
     9    4    5 ar
    10    5    6 ar
    11    5    7 1
    12    6   40 1
    13    7    8 2
    14    7   13 1
    15    8    9 1
    16    9   10 1
    17    9   11 am
    18   11   12 2
    19   13   14 1
    20   13   41 1
    21   13   42 1
    22   14   19 ar
    23   14   15 ar
    24   15   16 ar
    25   15   43 1
    26   16   17 ar
    27   16   44 1
    28   17   18 ar
    29   17   36 1
    30   18   19 ar
    31   18   20 1
    32   19   45 1
    33   20   21 2
    34   20   22 am
    35   22   27 1
    36   22   23 1
    37   23   24 1
    38   23   46 1
    39   23   47 1
    40   24   25 1
    41   24   48 1
    42   24   49 1
    43   25   26 1
    44   25   28 am
    45   26   27 1
    46   26   50 1
    47   26   51 1
    48   27   52 1
    49   27   53 1
    50   28   29 2
    51   28   30 1
    52   30   35 1
    53   30   31 1
    54   30   54 1
    55   31   32 1
    56   31   55 1
    57   31   56 1
    58   32   33 1
    59   32   57 1
    60   32   58 1
    61   33   34 1
    62   33   59 1
    63   33   60 1
    64   34   35 1
    65   34   61 1
    66   34   62 1
    67   35   63 1
    68   35   64 1
@<TRIPOS>MOLECULE
CHEMBL190434
   56    60     0     0     0
SMALL
USER_CHARGES

@<TRIPOS>ATOM
      1 C1         -0.0165    1.3623    0.0095 C.ar      1 <0>        -0.0804
      2 C2          1.1656    2.0925    0.0022 C.ar      1 <0>        -0.1293
      3 C3          2.3870    1.4553   -0.0133 C.ar      1 <0>        -0.0469
      4 C4          2.4318    0.0617   -0.0212 C.ar      1 <0>        -0.1441
      5 C5          1.2259   -0.6785   -0.0132 C.ar      1 <0>         0.0191
      6 C6          0.0021   -0.0041    0.0020 C.ar      1 <0>        -0.1188
      7 C7          1.3033   -2.1362   -0.0212 C.2       1 <0>        -0.1404
      8 C8          2.5107   -2.7535   -0.0360 C.2       1 <0>         0.1492
      9 N1          3.6827   -2.0213   -0.0438 N.am      1 <0>        -0.6226
     10 C9          3.6985   -0.6769   -0.0372 C.2       1 <0>         0.5561
     11 O1          4.7579   -0.0764   -0.0449 O.2       1 <0>        -0.5207
     12 C10         2.3211   -4.2234   -0.0409 C.ar      1 <0>        -0.0128
     13 C11         3.2472   -5.2707   -0.0544 C.ar      1 <0>        -0.1122
     14 C12         2.8055   -6.5771   -0.0557 C.ar      1 <0>        -0.0159
     15 C13         1.4503   -6.8565   -0.0441 C.ar      1 <0>        -0.6672
     16 C14         0.5274   -5.8245   -0.0307 C.ar      1 <0>         0.0028
     17 C15         0.9587   -4.5168   -0.0289 C.ar      1 <0>        -0.0969
     18 C16         0.2286   -3.1970   -0.0156 C.3       1 <0>        -0.0320
     19 S1          0.8978   -8.5296   -0.0471 S.o2      1 <0>         2.6968
     20 O2         -0.4173   -8.5222   -0.5853 O.2       1 <0>        -0.9505
     21 O3          1.9477   -9.3030   -0.6117 O.2       1 <0>        -0.9524
     22 N2          0.7594   -9.0023    1.5340 N.pl3     1 <0>        -1.1151
     23 C17        -0.2316   -8.3653    2.4049 C.3       1 <0>         0.1152
     24 C18        -0.4190   -9.2096    3.6670 C.3       1 <0>        -0.1245
     25 C19        -1.4539   -8.5443    4.5766 C.3       1 <0>         0.0549
     26 N3         -1.6339   -9.3549    5.7884 N.3       1 <0>        -0.5375
     27 C20        -2.2434  -10.6538    5.4677 C.3       1 <0>         0.0125
     28 C21        -2.3575  -11.4875    6.7467 C.3       1 <0>         0.0623
     29 O4         -3.1137  -10.7597    7.7183 O.3       1 <0>        -0.3852
     30 C22        -2.5482   -9.4899    8.0546 C.3       1 <0>         0.0625
     31 C23        -2.4360   -8.6359    6.7889 C.3       1 <0>         0.0172
     32 H1         -0.9631    1.8819    0.0259 H         1 <0>         0.1329
     33 H2          1.1265    3.1718    0.0083 H         1 <0>         0.1346
     34 H3          3.3013    2.0300   -0.0197 H         1 <0>         0.1414
     35 H4         -0.9240   -0.5597    0.0082 H         1 <0>         0.1356
     36 H5          4.3058   -5.0571   -0.0642 H         1 <0>         0.1361
     37 H6          3.5209   -7.3861   -0.0661 H         1 <0>         0.1488
     38 H7         -0.5298   -6.0450   -0.0221 H         1 <0>         0.1491
     39 H8         -0.3795   -3.1121    0.8850 H         1 <0>         0.1138
     40 H9         -0.3970   -3.1038   -0.9033 H         1 <0>         0.1145
     41 H10         1.3344   -9.7010    1.8834 H         1 <0>         0.4216
     42 H11         0.1148   -7.3696    2.6819 H         1 <0>         0.0681
     43 H12        -1.1817   -8.2856    1.8767 H         1 <0>         0.0822
     44 H13        -0.7654  -10.2053    3.3900 H         1 <0>         0.0747
     45 H14         0.5311   -9.2893    4.1953 H         1 <0>         0.0821
     46 H15        -1.1075   -7.5486    4.8536 H         1 <0>         0.0806
     47 H16        -2.4040   -8.4646    4.0484 H         1 <0>         0.0416
     48 H17        -3.2361  -10.4958    5.0464 H         1 <0>         0.0452
     49 H18        -1.6199  -11.1798    4.7448 H         1 <0>         0.0898
     50 H19        -2.8607  -12.4284    6.5241 H         1 <0>         0.0991
     51 H20        -1.3610  -11.6908    7.1388 H         1 <0>         0.0604
     52 H21        -3.1894   -8.9861    8.7779 H         1 <0>         0.0993
     53 H22        -1.5573   -9.6351    8.4847 H         1 <0>         0.0605
     54 H23        -1.9531   -7.6890    7.0303 H         1 <0>         0.0874
     55 H24        -3.4319   -8.4457    6.3887 H         1 <0>         0.0448
     56 H25         4.5282   -2.4965   -0.0543 H         1 <0>         0.4125
@<TRIPOS>BOND
     1    1    6 ar
     2    1    2 ar
     3    1   32 1
     4    2    3 ar
     5    2   33 1
     6    3    4 ar
     7    3   34 1
     8    4   10 1
     9    4    5 ar
    10    5    6 ar
    11    5    7 1
    12    6   35 1
    13    7   18 1
    14    7    8 2
    15    8    9 1
    16    8   12 1
    17    9   10 am
    18    9   56 1
    19   10   11 2
    20   12   17 ar
    21   12   13 ar
    22   13   14 ar
    23   13   36 1
    24   14   15 ar
    25   14   37 1
    26   15   16 ar
    27   15   19 1
    28   16   17 ar
    29   16   38 1
    30   17   18 1
    31   18   39 1
    32   18   40 1
    33   19   20 2
    34   19   21 2
    35   19   22 1
    36   22   23 1
    37   22   41 1
    38   23   24 1
    39   23   42 1
    40   23   43 1
    41   24   25 1
    42   24   44 1
    43   24   45 1
    44   25   26 1
    45   25   46 1
    46   25   47 1
    47   26   31 1
    48   26   27 1
    49   27   28 1
    50   27   48 1
    51   27   49 1
    52   28   29 1
    53   28   50 1
    54   28   51 1
    55   29   30 1
    56   30   31 1
    57   30   52 1
    58   30   53 1
    59   31   54 1
    60   31   55 1
@<TRIPOS>MOLECULE
CHEMBL190434__1
   57    61     0     0     0
SMALL
USER_CHARGES

@<TRIPOS>ATOM
      1 C1         -0.0165    1.3623    0.0095 C.ar      1 <0>        -0.0798
      2 C2          1.1656    2.0925    0.0022 C.ar      1 <0>        -0.1251
      3 C3          2.3870    1.4553   -0.0133 C.ar      1 <0>        -0.0465
      4 C4          2.4318    0.0617   -0.0212 C.ar      1 <0>        -0.1416
      5 C5          1.2259   -0.6785   -0.0132 C.ar      1 <0>         0.0138
      6 C6          0.0021   -0.0041    0.0020 C.ar      1 <0>        -0.1186
      7 C7          1.3033   -2.1362   -0.0212 C.2       1 <0>        -0.1355
      8 C8          2.5107   -2.7535   -0.0360 C.2       1 <0>         0.1437
      9 N1          3.6827   -2.0213   -0.0438 N.am      1 <0>        -0.6240
     10 C9          3.6985   -0.6769   -0.0372 C.2       1 <0>         0.5555
     11 O1          4.7579   -0.0764   -0.0449 O.2       1 <0>        -0.5152
     12 C10         2.3211   -4.2234   -0.0409 C.ar      1 <0>        -0.0046
     13 C11         3.2472   -5.2707   -0.0544 C.ar      1 <0>        -0.1116
     14 C12         2.8055   -6.5771   -0.0557 C.ar      1 <0>        -0.0153
     15 C13         1.4503   -6.8565   -0.0441 C.ar      1 <0>        -0.6740
     16 C14         0.5274   -5.8245   -0.0307 C.ar      1 <0>        -0.0002
     17 C15         0.9587   -4.5168   -0.0289 C.ar      1 <0>        -0.0981
     18 C16         0.2286   -3.1970   -0.0156 C.3       1 <0>        -0.0320
     19 S1          0.8978   -8.5296   -0.0471 S.o2      1 <0>         2.6967
     20 O2         -0.4173   -8.5222   -0.5853 O.2       1 <0>        -0.9459
     21 O3          1.9477   -9.3030   -0.6117 O.2       1 <0>        -0.9417
     22 N2          0.7594   -9.0023    1.5340 N.pl3     1 <0>        -1.1200
     23 C17        -0.2316   -8.3653    2.4049 C.3       1 <0>         0.1189
     24 C18        -0.4190   -9.2096    3.6670 C.3       1 <0>        -0.1599
     25 C19        -1.4539   -8.5443    4.5766 C.3       1 <0>        -0.0095
     26 N3         -1.6339   -9.3549    5.7884 N.4       1 <0>        -0.3854
     27 C20        -2.2147  -10.6552    5.4264 C.3       1 <0>        -0.0501
     28 C21        -2.4011  -11.4979    6.6905 C.3       1 <0>         0.0360
     29 O4         -3.2342  -10.7885    7.6116 O.3       1 <0>        -0.3560
     30 C22        -2.7220   -9.5039    7.9767 C.3       1 <0>         0.0353
     31 C23        -2.5363   -8.6575    6.7149 C.3       1 <0>        -0.0435
     32 H1         -0.9631    1.8819    0.0259 H         1 <0>         0.1342
     33 H2          1.1265    3.1718    0.0083 H         1 <0>         0.1367
     34 H3          3.3013    2.0300   -0.0197 H         1 <0>         0.1431
     35 H4         -0.9240   -0.5597    0.0082 H         1 <0>         0.1348
     36 H5          4.3058   -5.0571   -0.0642 H         1 <0>         0.1383
     37 H6          3.5209   -7.3861   -0.0661 H         1 <0>         0.1492
     38 H7         -0.5298   -6.0450   -0.0221 H         1 <0>         0.1478
     39 H8         -0.3795   -3.1121    0.8850 H         1 <0>         0.1124
     40 H9         -0.3970   -3.1038   -0.9033 H         1 <0>         0.1161
     41 H10         1.3344   -9.7010    1.8834 H         1 <0>         0.4229
     42 H11         0.1148   -7.3696    2.6819 H         1 <0>         0.0784
     43 H12        -1.1817   -8.2856    1.8767 H         1 <0>         0.0939
     44 H13        -0.7654  -10.2053    3.3900 H         1 <0>         0.0991
     45 H14         0.5311   -9.2893    4.1953 H         1 <0>         0.0976
     46 H15        -1.1075   -7.5486    4.8536 H         1 <0>         0.1379
     47 H16        -2.4040   -8.4646    4.0484 H         1 <0>         0.1375
     48 H17        -3.1812  -10.5007    4.9466 H         1 <0>         0.1416
     49 H18        -1.5460  -11.1734    4.7391 H         1 <0>         0.1440
     50 H19        -2.8715  -12.4460    6.4299 H         1 <0>         0.1427
     51 H20        -1.4302  -11.6864    7.1487 H         1 <0>         0.0813
     52 H21        -3.4247   -9.0089    8.6469 H         1 <0>         0.1428
     53 H22        -1.7621   -9.6241    8.4789 H         1 <0>         0.0813
     54 H23        -2.1062   -7.6928    6.9842 H         1 <0>         0.1436
     55 H24        -3.5026   -8.5038    6.2347 H         1 <0>         0.1406
     56 H25         4.5282   -2.4965   -0.0543 H         1 <0>         0.4127
     57 H26        -0.7397   -9.4979    6.2334 H         1 <0>         0.4236
@<TRIPOS>BOND
     1    1    6 ar
     2    1    2 ar
     3    1   32 1
     4    2    3 ar
     5    2   33 1
     6    3    4 ar
     7    3   34 1
     8    4   10 1
     9    4    5 ar
    10    5    6 ar
    11    5    7 1
    12    6   35 1
    13    7   18 1
    14    7    8 2
    15    8    9 1
    16    8   12 1
    17    9   10 am
    18    9   56 1
    19   10   11 2
    20   12   17 ar
    21   12   13 ar
    22   13   14 ar
    23   13   36 1
    24   14   15 ar
    25   14   37 1
    26   15   16 ar
    27   15   19 1
    28   16   17 ar
    29   16   38 1
    30   17   18 1
    31   18   39 1
    32   18   40 1
    33   19   20 2
    34   19   21 2
    35   19   22 1
    36   22   23 1
    37   22   41 1
    38   23   24 1
    39   23   42 1
    40   23   43 1
    41   24   25 1
    42   24   44 1
    43   24   45 1
    44   25   26 1
    45   25   46 1
    46   25   47 1
    47   26   31 1
    48   26   27 1
    49   26   57 1
    50   27   28 1
    51   27   48 1
    52   27   49 1
    53   28   29 1
    54   28   50 1
    55   28   51 1
    56   29   30 1
    57   30   31 1
    58   30   52 1
    59   30   53 1
    60   31   54 1
    61   31   55 1
@<TRIPOS>MOLECULE
CHEMBL595230
   52    55     0     0     0
SMALL
USER_CHARGES

@<TRIPOS>ATOM
      1 C1         -2.0114    0.2576   -0.7775 C.3       1 <0>        -0.0450
      2 N1         -1.3740   -1.0302   -0.4718 N.4       1 <0>        -0.3880
      3 C2         -2.4023   -2.0042   -0.0868 C.3       1 <0>        -0.0098
      4 C3         -1.7531   -3.3687    0.1542 C.3       1 <0>        -0.1521
      5 C4         -0.7191   -3.2448    1.2770 C.3       1 <0>        -0.1306
      6 C5          0.3066   -2.1730    0.8971 C.3       1 <0>        -0.1333
      7 H1          1.0139   -2.0396    1.7156 H         1 <0>         0.1512
      8 C6         -0.4190   -0.8528    0.6286 C.3       1 <0>         0.0148
      9 C7          1.0473   -2.6024   -0.3431 C.2       1 <0>         0.5196
     10 O1          1.0030   -1.9180   -1.3435 O.2       1 <0>        -0.5350
     11 N2          1.7589   -3.7470   -0.3406 N.am      1 <0>        -0.6470
     12 C8          2.3699   -4.1944   -1.5190 C.ar      1 <0>         0.0898
     13 C9          2.8836   -3.2773   -2.4262 C.ar      1 <0>        -0.0656
     14 C10         3.4862   -3.7178   -3.5873 C.ar      1 <0>        -0.0951
     15 C11         3.5790   -5.0787   -3.8496 C.ar      1 <0>         0.1774
     16 C12         3.0657   -5.9975   -2.9433 C.ar      1 <0>        -0.1524
     17 C13         2.4673   -5.5575   -1.7779 C.ar      1 <0>         0.1132
     18 F1          1.9723   -6.4506   -0.8933 F         1 <0>        -0.1233
     19 N3          4.1900   -5.5246   -5.0288 N.pl3     1 <0>        -0.2828
     20 C14         4.3295   -6.8108   -5.3857 C.2       1 <0>         0.0908
     21 C15         4.9795   -6.8433   -6.6074 C.ar      1 <0>        -0.1833
     22 C16         5.4042   -7.8643   -7.4797 C.ar      1 <0>        -0.0470
     23 C17         6.0371   -7.5595   -8.6444 C.ar      1 <0>         0.0612
     24 C18         6.2966   -6.2499   -9.0342 C.ar      1 <0>        -0.0518
     25 C19         5.9190   -5.1744   -8.2452 C.ar      1 <0>        -0.0893
     26 C20         5.2322   -5.4412   -6.9777 C.ar      1 <0>         0.1377
     27 N4          4.7402   -4.6945   -6.0124 N.2       1 <0>        -0.2520
     28 C21         6.2015   -3.7942   -8.6709 C.2       1 <0>         0.5647
     29 O2          5.8643   -2.8600   -7.9685 O.2       1 <0>        -0.5196
     30 N5          6.8337   -3.5653   -9.8390 N.am      1 <0>        -0.8490
     31 F2          6.4293   -8.5678   -9.4536 F         1 <0>        -0.1330
     32 H2         -1.2493    0.9799   -1.0699 H         1 <0>         0.1248
     33 H3         -2.7209    0.1270   -1.5946 H         1 <0>         0.1236
     34 H4         -2.5370    0.6214    0.1054 H         1 <0>         0.1215
     35 H5         -2.8946   -1.6702    0.8266 H         1 <0>         0.1318
     36 H6         -3.1392   -2.0889   -0.8855 H         1 <0>         0.1321
     37 H7         -2.5180   -4.0901    0.4417 H         1 <0>         0.1208
     38 H8         -1.2606   -3.7038   -0.7587 H         1 <0>         0.0837
     39 H9         -1.2188   -2.9593    2.2027 H         1 <0>         0.1042
     40 H10        -0.2136   -4.2007    1.4142 H         1 <0>         0.0996
     41 H11         0.3084   -0.0874    0.3580 H         1 <0>         0.1385
     42 H12        -0.9536   -0.5434    1.5267 H         1 <0>         0.1415
     43 H13         1.8479   -4.2610    0.4772 H         1 <0>         0.4231
     44 H14         2.8113   -2.2190   -2.2235 H         1 <0>         0.1621
     45 H15         3.8855   -3.0038   -4.2924 H         1 <0>         0.1598
     46 H16         3.1375   -7.0556   -3.1475 H         1 <0>         0.1566
     47 H17         3.9948   -7.6679   -4.8201 H         1 <0>         0.1975
     48 H18         5.2262   -8.8978   -7.2215 H         1 <0>         0.1483
     49 H19         6.8030   -6.0671   -9.9705 H         1 <0>         0.1518
     50 H20         7.1025   -4.3102  -10.3991 H         1 <0>         0.4014
     51 H21         7.0199   -2.6556  -10.1195 H         1 <0>         0.4105
     52 H22        -0.8857   -1.3649   -1.2889 H         1 <0>         0.4312
@<TRIPOS>BOND
     1    1    2 1
     2    1   32 1
     3    1   33 1
     4    1   34 1
     5    2    8 1
     6    2    3 1
     7    2   52 1
     8    3    4 1
     9    3   35 1
    10    3   36 1
    11    4    5 1
    12    4   37 1
    13    4   38 1
    14    5    6 1
    15    5   39 1
    16    5   40 1
    17    6    7 1
    18    6    8 1
    19    6    9 1
    20    8   41 1
    21    8   42 1
    22    9   10 2
    23    9   11 am
    24   11   12 1
    25   11   43 1
    26   12   17 ar
    27   12   13 ar
    28   13   14 ar
    29   13   44 1
    30   14   15 ar
    31   14   45 1
    32   15   16 ar
    33   15   19 1
    34   16   17 ar
    35   16   46 1
    36   17   18 1
    37   19   27 1
    38   19   20 1
    39   20   21 2
    40   20   47 1
    41   21   26 ar
    42   21   22 ar
    43   22   23 ar
    44   22   48 1
    45   23   24 ar
    46   23   31 1
    47   24   25 ar
    48   24   49 1
    49   25   26 ar
    50   25   28 1
    51   26   27 2
    52   28   29 2
    53   28   30 am
    54   30   50 1
    55   30   51 1
@<TRIPOS>MOLECULE
CHEMBL110178
   59    62     0     0     0
SMALL
USER_CHARGES

@<TRIPOS>ATOM
      1 C1          1.2394   -0.6478    0.0009 C.ar      1 <0>        -0.2136
      2 C2          2.3900    0.1121   -0.0074 C.ar      1 <0>         0.1698
      3 N1          2.3301    1.4307   -0.0143 N.ar      1 <0>        -0.4961
      4 C3          1.1791    2.0768   -0.0135 C.ar      1 <0>         0.1696
      5 C4         -0.0169    1.3905   -0.0054 C.ar      1 <0>        -0.2135
      6 C5          0.0021   -0.0041    0.0020 C.ar      1 <0>         0.3155
      7 N2         -1.1826   -0.7342    0.0099 N.pl3     1 <0>        -0.5701
      8 C6         -2.4798   -0.0539    0.1305 C.3       1 <0>         0.0856
      9 C7         -3.3626   -0.4686   -1.0531 C.3       1 <0>         0.0954
     10 N3         -3.3390   -1.9338   -1.1658 N.am      1 <0>        -0.6174
     11 C8         -2.0419   -2.6141   -1.2864 C.3       1 <0>         0.0875
     12 C9         -1.1594   -2.1989   -0.1085 C.3       1 <0>         0.0836
     13 C10        -4.4864   -2.6409   -1.1582 C.2       1 <0>         0.5160
     14 O1         -5.5509   -2.0684   -1.0577 O.2       1 <0>        -0.5172
     15 C11        -4.4466   -4.1429   -1.2746 C.3       1 <0>         0.1006
     16 N4         -5.8125   -4.6715   -1.2417 N.am      1 <0>        -0.7215
     17 C12        -6.0234   -5.9997   -1.3315 C.2       1 <0>         0.5292
     18 O2         -5.0824   -6.7571   -1.4395 O.2       1 <0>        -0.5314
     19 C13        -7.4284   -6.5435   -1.2977 C.3       1 <0>        -0.1628
     20 C14        -7.3880   -8.0684   -1.4159 C.3       1 <0>         0.1176
     21 N5         -8.7539   -8.5971   -1.3830 N.am      1 <0>        -0.5400
     22 C15        -9.3158   -8.9254   -0.1591 C.2       1 <0>         0.2100
     23 C16       -10.5699   -9.3841   -0.1406 C.2       1 <0>        -0.2427
     24 C17       -11.2573   -9.5647   -1.3799 C.2       1 <0>         0.5537
     25 O3        -12.3881  -10.0166   -1.3819 O.2       1 <0>        -0.5008
     26 N6        -10.6692   -9.2408   -2.5420 N.am      1 <0>        -0.6558
     27 H1        -11.1423   -9.3621   -3.3801 H         1 <0>         0.4359
     28 C18        -9.4188   -8.7416   -2.5343 C.2       1 <0>         0.6989
     29 O4         -8.8889   -8.4241   -3.5816 O.2       1 <0>        -0.5328
     30 C19       -11.3763   -9.7187    1.0894 C.3       1 <0>        -0.0123
     31 S1        -10.2775   -9.9747    2.5103 S.3       1 <0>        -0.2305
     32 C20        -9.1267   -8.5727    2.3405 C.3       1 <0>        -0.0850
     33 C21        -8.3981   -8.7356    1.0141 C.3       1 <0>        -0.1007
     34 H2          1.2955   -1.7264    0.0021 H         1 <0>         0.1778
     35 H3          3.3525   -0.3778   -0.0079 H         1 <0>         0.2051
     36 H4          1.1740    3.1568   -0.0190 H         1 <0>         0.2049
     37 H5         -0.9552    1.9254   -0.0049 H         1 <0>         0.1776
     38 H6         -2.9600   -0.3449    1.0647 H         1 <0>         0.0982
     39 H7         -2.3296    1.0256    0.1143 H         1 <0>         0.1094
     40 H8         -4.3850   -0.1313   -0.8827 H         1 <0>         0.1197
     41 H9         -2.9764   -0.0249   -1.9707 H         1 <0>         0.0827
     42 H10        -2.1921   -3.6936   -1.2702 H         1 <0>         0.1145
     43 H11        -1.5617   -2.3231   -2.2206 H         1 <0>         0.0877
     44 H12        -0.1374   -2.5357   -0.2825 H         1 <0>         0.1110
     45 H13        -1.5434   -2.6462    0.8083 H         1 <0>         0.0984
     46 H14        -3.9715   -4.4219   -2.2150 H         1 <0>         0.1045
     47 H15        -3.8767   -4.5568   -0.4427 H         1 <0>         0.1033
     48 H16        -6.5651   -4.0657   -1.1554 H         1 <0>         0.4154
     49 H17        -7.9035   -6.2644   -0.3573 H         1 <0>         0.1044
     50 H18        -7.9983   -6.1296   -2.1296 H         1 <0>         0.1107
     51 H19        -6.9129   -8.3475   -2.3563 H         1 <0>         0.1172
     52 H20        -6.8181   -8.4823   -0.5840 H         1 <0>         0.1110
     53 H21       -12.0613   -8.8989    1.3059 H         1 <0>         0.1040
     54 H22       -11.9503  -10.6275    0.9086 H         1 <0>         0.1293
     55 H23        -9.6825   -7.6351    2.3447 H         1 <0>         0.0952
     56 H24        -8.4087   -8.5819    3.1606 H         1 <0>         0.1253
     57 H25        -7.7377   -9.6000    1.0832 H         1 <0>         0.1170
     58 H26        -7.7890   -7.8486    0.8400 H         1 <0>         0.1026
     59 H27         3.1558    1.9396   -0.0197 H         1 <0>         0.4482
@<TRIPOS>BOND
     1    1    6 ar
     2    1    2 ar
     3    1   34 1
     4    2    3 ar
     5    2   35 1
     6    3    4 ar
     7    3   59 1
     8    4    5 ar
     9    4   36 1
    10    5    6 ar
    11    5   37 1
    12    6    7 1
    13    7   12 1
    14    7    8 1
    15    8    9 1
    16    8   38 1
    17    8   39 1
    18    9   10 1
    19    9   40 1
    20    9   41 1
    21   10   11 1
    22   10   13 am
    23   11   12 1
    24   11   42 1
    25   11   43 1
    26   12   44 1
    27   12   45 1
    28   13   14 2
    29   13   15 1
    30   15   16 1
    31   15   46 1
    32   15   47 1
    33   16   17 am
    34   16   48 1
    35   17   18 2
    36   17   19 1
    37   19   20 1
    38   19   49 1
    39   19   50 1
    40   20   21 1
    41   20   51 1
    42   20   52 1
    43   21   28 am
    44   21   22 1
    45   22   33 1
    46   22   23 2
    47   23   24 1
    48   23   30 1
    49   24   25 2
    50   24   26 am
    51   26   27 1
    52   26   28 am
    53   28   29 2
    54   30   31 1
    55   30   53 1
    56   30   54 1
    57   31   32 1
    58   32   33 1
    59   32   55 1
    60   32   56 1
    61   33   57 1
    62   33   58 1
@<TRIPOS>MOLECULE
CHEMBL144084
   31    34     0     0     0
SMALL
USER_CHARGES

@<TRIPOS>ATOM
      1 C1         -0.0167    1.3778    0.0096 C.ar      1 <0>        -0.1065
      2 C2          1.1568    2.1051    0.0023 C.ar      1 <0>        -0.0722
      3 C3          2.3930    1.4548   -0.0341 C.ar      1 <0>        -0.0893
      4 C4          2.4120    0.0468   -0.1416 C.ar      1 <0>        -0.0667
      5 C5          1.2119   -0.6827   -0.0635 C.ar      1 <0>         0.0955
      6 C6          0.0021   -0.0041    0.0020 C.ar      1 <0>        -0.0966
      7 N1          1.5431   -2.0228   -0.0899 N.pl3     1 <0>        -0.5783
      8 H1          0.9242   -2.7607    0.0258 H         1 <0>         0.4225
      9 C7          2.8974   -2.1376   -0.3086 C.2       1 <0>         0.1713
     10 C8          3.4471   -0.8962   -0.3746 C.2       1 <0>        -0.1424
     11 C9          4.8598   -0.5269   -0.6588 C.3       1 <0>        -0.0744
     12 C10         4.9763    0.7991   -1.3690 C.3       1 <0>         0.1137
     13 N2          4.8019    1.9371   -0.5007 N.am      1 <0>        -0.7151
     14 C11         3.6216    2.2387    0.0731 C.2       1 <0>         0.5638
     15 O1          3.5738    3.2545    0.7405 O.2       1 <0>        -0.5435
     16 C12         3.6333   -3.4036   -0.4481 C.2       1 <0>        -0.1194
     17 C13         3.3065   -4.5249   -1.1880 C.2       1 <0>        -0.1313
     18 C14         4.1647   -5.6001   -1.1605 C.2       1 <0>        -0.1600
     19 C15         5.2971   -5.5277   -0.4138 C.2       1 <0>        -0.1700
     20 S1          5.1856   -3.8901    0.2877 S.3       1 <0>         0.0980
     21 H2         -0.9637    1.8967    0.0260 H         1 <0>         0.1370
     22 H3          1.1190    3.1842    0.0246 H         1 <0>         0.1362
     23 H4         -0.9248   -0.5566    0.0470 H         1 <0>         0.1287
     24 H5          5.4064   -0.4722    0.2827 H         1 <0>         0.0793
     25 H6          5.3087   -1.3011   -1.2809 H         1 <0>         0.0876
     26 H7          5.9613    0.8613   -1.8317 H         1 <0>         0.0918
     27 H8          4.2220    0.8412   -2.1547 H         1 <0>         0.0700
     28 H9          5.5656    2.5080   -0.3225 H         1 <0>         0.4061
     29 H10         2.3993   -4.5562   -1.7731 H         1 <0>         0.1349
     30 H11         3.9401   -6.4921   -1.7264 H         1 <0>         0.1388
     31 H12         6.0700   -6.2703   -0.2815 H         1 <0>         0.1906
@<TRIPOS>BOND
     1    1    6 ar
     2    1    2 ar
     3    1   21 1
     4    2    3 ar
     5    2   22 1
     6    3   14 1
     7    3    4 ar
     8    4   10 1
     9    4    5 ar
    10    5    6 ar
    11    5    7 1
    12    6   23 1
    13    7    8 1
    14    7    9 1
    15    9   10 2
    16    9   16 1
    17   10   11 1
    18   11   12 1
    19   11   24 1
    20   11   25 1
    21   12   13 1
    22   12   26 1
    23   12   27 1
    24   13   14 am
    25   13   28 1
    26   14   15 2
    27   16   20 1
    28   16   17 2
    29   17   18 1
    30   17   29 1
    31   18   19 2
    32   18   30 1
    33   19   20 1
    34   19   31 1
@<TRIPOS>MOLECULE
CHEMBL106298
   41    44     0     0     0
SMALL
USER_CHARGES

@<TRIPOS>ATOM
      1 C1          0.2973    1.4467    0.1632 C.3       1 <0>        -0.0141
      2 N1          0.1554   -0.0129    0.0765 N.4       1 <0>        -0.1209
      3 O1          0.6294   -0.4704   -1.2298 O.3       1 <0>        -0.6421
      4 C2         -1.2587   -0.3756    0.2346 C.3       1 <0>         0.0046
      5 C3         -1.4236   -1.8852    0.0304 C.3       1 <0>         0.1250
      6 N2         -0.5114   -2.5826    0.9500 N.pl3     1 <0>        -0.6124
      7 C4          0.8996   -2.1671    0.9743 C.3       1 <0>         0.1270
      8 C5          0.9549   -0.6442    1.1340 C.3       1 <0>         0.0048
      9 C6         -0.9701   -3.6055    1.7735 C.ar      1 <0>         0.3965
     10 C7         -2.2491   -4.1260    1.5763 C.ar      1 <0>        -0.1909
     11 C8         -2.7026   -5.1408    2.3941 C.ar      1 <0>        -0.0660
     12 C9         -1.8581   -5.6159    3.3999 C.ar      1 <0>         0.0709
     13 C10        -0.5862   -5.0470    3.5412 C.ar      1 <0>         0.1703
     14 N3         -0.1867   -4.0741    2.7277 N.ar      1 <0>        -0.5042
     15 C11         0.3069   -5.5487    4.6042 C.ar      1 <0>        -0.0052
     16 C12         1.5808   -5.0239    4.7947 C.ar      1 <0>        -0.0893
     17 C13         2.3810   -5.5235    5.8015 C.ar      1 <0>        -0.0911
     18 C14         1.9263   -6.5437    6.6238 C.ar      1 <0>        -0.1188
     19 C15         0.6668   -7.0771    6.4503 C.ar      1 <0>        -0.0547
     20 C16        -0.1572   -6.5852    5.4392 C.ar      1 <0>        -0.1281
     21 C17        -1.5077   -7.1251    5.2204 C.2       1 <0>         0.5560
     22 N4         -2.2839   -6.6336    4.2378 N.am      1 <0>        -0.6335
     23 O2         -1.9249   -8.0202    5.9316 O.2       1 <0>        -0.5220
     24 H1          1.3455    1.7179    0.0380 H         1 <0>         0.0988
     25 H2         -0.2958    1.9166   -0.6214 H         1 <0>         0.0983
     26 H3         -0.0526    1.7885    1.1372 H         1 <0>         0.0803
     27 H4         -1.5934   -0.1056    1.2362 H         1 <0>         0.0905
     28 H5         -1.8557    0.1585   -0.5046 H         1 <0>         0.1148
     29 H6         -2.4523   -2.1738    0.2461 H         1 <0>         0.0980
     30 H7         -1.1754   -2.1449   -0.9987 H         1 <0>         0.0969
     31 H8          1.4069   -2.6421    1.8141 H         1 <0>         0.1089
     32 H9          1.3825   -2.4553    0.0405 H         1 <0>         0.0897
     33 H10         1.9889   -0.3080    1.0576 H         1 <0>         0.1127
     34 H11         0.5532   -0.3661    2.1083 H         1 <0>         0.0899
     35 H12        -2.8796   -3.7377    0.7900 H         1 <0>         0.1441
     36 H13        -3.6895   -5.5584    2.2595 H         1 <0>         0.1469
     37 H14         1.9417   -4.2299    4.1577 H         1 <0>         0.1416
     38 H15         3.3704   -5.1169    5.9504 H         1 <0>         0.1341
     39 H16         2.5650   -6.9241    7.4072 H         1 <0>         0.1352
     40 H17         0.3204   -7.8718    7.0944 H         1 <0>         0.1424
     41 H18        -3.1713   -7.0043    4.1116 H         1 <0>         0.4150
@<TRIPOS>BOND
     1    1    2 1
     2    1   24 1
     3    1   25 1
     4    1   26 1
     5    2    8 1
     6    2    3 1
     7    2    4 1
     8    4    5 1
     9    4   27 1
    10    4   28 1
    11    5    6 1
    12    5   29 1
    13    5   30 1
    14    6    7 1
    15    6    9 1
    16    7    8 1
    17    7   31 1
    18    7   32 1
    19    8   33 1
    20    8   34 1
    21    9   14 ar
    22    9   10 ar
    23   10   11 ar
    24   10   35 1
    25   11   12 ar
    26   11   36 1
    27   12   22 1
    28   12   13 ar
    29   13   14 ar
    30   13   15 1
    31   15   20 ar
    32   15   16 ar
    33   16   17 ar
    34   16   37 1
    35   17   18 ar
    36   17   38 1
    37   18   19 ar
    38   18   39 1
    39   19   20 ar
    40   19   40 1
    41   20   21 1
    42   21   22 am
    43   21   23 2
    44   22   41 1
@<TRIPOS>MOLECULE
CHEMBL601260
   59    63     0     0     0
SMALL
USER_CHARGES

@<TRIPOS>ATOM
      1 C1         -0.0563    1.5471    0.0541 C.ar      1 <0>        -0.0490
      2 C2          0.8251    1.6635   -1.0046 C.ar      1 <0>        -0.1445
      3 C3          2.0032    0.9395   -1.0095 C.ar      1 <0>         0.1570
      4 C4          2.3002    0.0889    0.0603 C.ar      1 <0>        -0.1712
      5 C5          1.4035   -0.0218    1.1248 C.ar      1 <0>        -0.0640
      6 C6          0.2327    0.7067    1.1153 C.ar      1 <0>        -0.1030
      7 C7         -0.7350    0.5879    2.2643 C.3       1 <0>        -0.0333
      8 C8         -1.6429   -0.5932    2.0364 C.2       1 <0>         0.0237
      9 C9         -1.4331   -1.3843    0.9946 C.2       1 <0>         0.0714
     10 N1         -2.2352   -2.4836    0.7358 N.am      1 <0>        -0.6470
     11 H1         -2.0537   -3.0427   -0.0359 H         1 <0>         0.4221
     12 C10        -3.2685   -2.7808    1.5533 C.2       1 <0>         0.5831
     13 O1         -3.9785   -3.7458    1.3332 O.2       1 <0>        -0.4943
     14 C11        -3.5163   -1.9190    2.7091 C.2       1 <0>        -0.0448
     15 N2         -2.6835   -0.8375    2.9265 N.pl3     1 <0>        -0.3481
     16 C12        -3.0997   -0.1982    4.0473 C.2       1 <0>         0.0972
     17 C13        -4.1780   -0.8521    4.5537 C.2       1 <0>        -0.0852
     18 C14        -4.4573   -1.9350    3.7154 C.2       1 <0>        -0.0682
     19 Cl1        -5.0611   -0.4119    5.9820 Cl        1 <0>        -0.0044
     20 Cl2        -2.3724    1.2245    4.7261 Cl        1 <0>         0.0185
     21 C15         3.5558   -0.6888    0.0636 C.2       1 <0>         0.5725
     22 O2          4.6229   -0.1208   -0.0656 O.2       1 <0>        -0.4924
     23 N3          3.5186   -2.0280    0.2100 N.am      1 <0>        -0.6175
     24 C16         2.2452   -2.7199    0.4521 C.3       1 <0>         0.0807
     25 C17         2.0786   -3.8268   -0.5936 C.3       1 <0>        -0.1568
     26 C18         3.3056   -4.7411   -0.5634 C.3       1 <0>         0.0636
     27 C19         3.1277   -5.8649   -1.5870 C.3       1 <0>        -0.1318
     28 C20         1.8770   -6.6755   -1.2353 C.3       1 <0>        -0.1402
     29 C21         2.0116   -7.2091    0.1938 C.3       1 <0>        -0.1455
     30 C22         2.2304   -6.0358    1.1514 C.3       1 <0>        -0.0148
     31 N4          3.4545   -5.3169    0.7787 N.4       1 <0>        -0.5039
     32 C23         4.5561   -3.9302   -0.9124 C.3       1 <0>        -0.1516
     33 C24         4.7498   -2.8253    0.1244 C.3       1 <0>         0.0953
     34 F1          2.8642    1.0531   -2.0443 F         1 <0>        -0.1182
     35 H2         -0.9730    2.1181    0.0552 H         1 <0>         0.1485
     36 H3          0.5930    2.3209   -1.8294 H         1 <0>         0.1542
     37 H4          1.6263   -0.6770    1.9539 H         1 <0>         0.1412
     38 H5         -0.1814    0.4467    3.1926 H         1 <0>         0.1038
     39 H6         -1.3320    1.4973    2.3321 H         1 <0>         0.1067
     40 H7         -0.6126   -1.1654    0.3273 H         1 <0>         0.1761
     41 H8         -5.2531   -2.6546    3.8392 H         1 <0>         0.1754
     42 H9          2.2514   -3.1580    1.4502 H         1 <0>         0.0716
     43 H10         1.4220   -2.0104    0.3674 H         1 <0>         0.1141
     44 H11         1.1854   -4.4092   -0.3677 H         1 <0>         0.1077
     45 H12         1.9818   -3.3806   -1.5834 H         1 <0>         0.1189
     46 H13         3.0153   -5.4358   -2.5826 H         1 <0>         0.1121
     47 H14         4.0012   -6.5167   -1.5674 H         1 <0>         0.0926
     48 H15         0.9970   -6.0361   -1.3043 H         1 <0>         0.0832
     49 H16         1.7773   -7.5108   -1.9284 H         1 <0>         0.0978
     50 H17         1.1012   -7.7405    0.4712 H         1 <0>         0.1144
     51 H18         2.8621   -7.8885    0.2502 H         1 <0>         0.0904
     52 H19         1.3793   -5.3571    1.0942 H         1 <0>         0.1304
     53 H20         2.3262   -6.4117    2.1700 H         1 <0>         0.1361
     54 H21         4.2343   -5.9572    0.7842 H         1 <0>         0.4290
     55 H22         5.4265   -4.5863   -0.9136 H         1 <0>         0.1075
     56 H23         4.4358   -3.4828   -1.8990 H         1 <0>         0.1183
     57 H24         5.5794   -2.1853   -0.1763 H         1 <0>         0.1235
     58 H25         4.9639   -3.2723    1.0952 H         1 <0>         0.0685
     59 H26         3.6247   -4.5774    1.4438 H         1 <0>         0.4222
@<TRIPOS>BOND
     1    1    6 ar
     2    1    2 ar
     3    1   35 1
     4    2    3 ar
     5    2   36 1
     6    3    4 ar
     7    3   34 1
     8    4    5 ar
     9    4   21 1
    10    5    6 ar
    11    5   37 1
    12    6    7 1
    13    7    8 1
    14    7   38 1
    15    7   39 1
    16    8   15 1
    17    8    9 2
    18    9   10 1
    19    9   40 1
    20   10   11 1
    21   10   12 am
    22   12   13 2
    23   12   14 1
    24   14   18 2
    25   14   15 1
    26   15   16 1
    27   16   17 2
    28   16   20 1
    29   17   18 1
    30   17   19 1
    31   18   41 1
    32   21   22 2
    33   21   23 am
    34   23   33 1
    35   23   24 1
    36   24   25 1
    37   24   42 1
    38   24   43 1
    39   25   26 1
    40   25   44 1
    41   25   45 1
    42   26   31 1
    43   26   27 1
    44   26   32 1
    45   27   28 1
    46   27   46 1
    47   27   47 1
    48   28   29 1
    49   28   48 1
    50   28   49 1
    51   29   30 1
    52   29   50 1
    53   29   51 1
    54   30   31 1
    55   30   52 1
    56   30   53 1
    57   31   54 1
    58   31   59 1
    59   32   33 1
    60   32   55 1
    61   32   56 1
    62   33   57 1
    63   33   58 1
@<TRIPOS>MOLECULE
CHEMBL63211
   33    36     0     0     0
SMALL
USER_CHARGES

@<TRIPOS>ATOM
      1 C1         -0.0162    1.3800    0.0121 C.ar      1 <0>        -0.1003
      2 C2          0.1374    0.2214    0.7524 C.ar      1 <0>        -0.1175
      3 C3          1.3404   -0.4540    0.7402 C.ar      1 <0>        -0.1113
      4 C4          2.4032    0.0336   -0.0212 C.ar      1 <0>        -0.0334
      5 C5          2.2416    1.2025   -0.7660 C.ar      1 <0>        -0.0676
      6 C6          1.0336    1.8687   -0.7450 C.ar      1 <0>        -0.1178
      7 C7          3.6958   -0.6852   -0.0384 C.2       1 <0>         0.3321
      8 N1          4.8412   -0.1678   -0.4087 N.2       1 <0>        -0.4703
      9 C8          5.8158   -1.1040   -0.3013 C.ar      1 <0>         0.0420
     10 C9          7.1692   -1.1227   -0.6552 C.ar      1 <0>        -0.0295
     11 C10         7.9211   -2.2563   -0.4332 C.ar      1 <0>        -0.1372
     12 C11         7.3643   -3.3699    0.1654 C.ar      1 <0>        -0.0303
     13 C12         6.0182   -3.3748    0.5449 C.ar      1 <0>        -0.1290
     14 C13         5.2307   -2.2540    0.2532 C.ar      1 <0>         0.0803
     15 N2          3.8765   -1.9883    0.3353 N.pl3     1 <0>        -0.4822
     16 C14         2.8725   -2.9538    0.7152 C.3       1 <0>         0.0765
     17 C15         3.2404   -4.3647    0.3271 C.3       1 <0>         0.0945
     18 N3          4.2139   -4.9658    1.2076 N.am      1 <0>        -0.7185
     19 C16         5.4818   -4.5321    1.2672 C.2       1 <0>         0.5618
     20 O1          6.2433   -5.1432    1.9919 O.2       1 <0>        -0.5338
     21 H1         -0.9612    1.9028    0.0217 H         1 <0>         0.1293
     22 H2         -0.6859   -0.1550    1.3413 H         1 <0>         0.1308
     23 H3          1.4594   -1.3580    1.3191 H         1 <0>         0.1269
     24 H4          3.0605    1.5852   -1.3571 H         1 <0>         0.1386
     25 H5          0.9072    2.7735   -1.3210 H         1 <0>         0.1329
     26 H6          7.6238   -0.2507   -1.1018 H         1 <0>         0.1395
     27 H7          8.9592   -2.2740   -0.7307 H         1 <0>         0.1422
     28 H8          7.9735   -4.2442    0.3414 H         1 <0>         0.1430
     29 H9          2.7348   -2.9111    1.7956 H         1 <0>         0.0877
     30 H10         1.9313   -2.6906    0.2324 H         1 <0>         0.1145
     31 H11         2.3379   -4.9758    0.3346 H         1 <0>         0.1150
     32 H12         3.6441   -4.3546   -0.6853 H         1 <0>         0.0799
     33 H13         3.9433   -5.7111    1.7664 H         1 <0>         0.4112
@<TRIPOS>BOND
     1    1    6 ar
     2    1    2 ar
     3    1   21 1
     4    2    3 ar
     5    2   22 1
     6    3    4 ar
     7    3   23 1
     8    4    5 ar
     9    4    7 1
    10    5    6 ar
    11    5   24 1
    12    6   25 1
    13    7   15 1
    14    7    8 2
    15    8    9 1
    16    9   14 ar
    17    9   10 ar
    18   10   11 ar
    19   10   26 1
    20   11   12 ar
    21   11   27 1
    22   12   13 ar
    23   12   28 1
    24   13   19 1
    25   13   14 ar
    26   14   15 1
    27   15   16 1
    28   16   17 1
    29   16   29 1
    30   16   30 1
    31   17   18 1
    32   17   31 1
    33   17   32 1
    34   18   19 am
    35   18   33 1
    36   19   20 2
@<TRIPOS>MOLECULE
CHEMBL589833
   59    63     0     0     0
SMALL
USER_CHARGES

@<TRIPOS>ATOM
      1 C1         -0.0564    1.5439    0.0565 C.ar      1 <0>        -0.0504
      2 C2          0.8233    1.6630   -1.0033 C.ar      1 <0>        -0.1460
      3 C3          2.0027    0.9412   -1.0105 C.ar      1 <0>         0.1544
      4 C4          2.3028    0.0901    0.0580 C.ar      1 <0>        -0.1692
      5 C5          1.4078   -0.0233    1.1236 C.ar      1 <0>        -0.0623
      6 C6          0.2357    0.7030    1.1165 C.ar      1 <0>        -0.1028
      7 C7         -0.7303    0.5813    2.2667 C.3       1 <0>        -0.0335
      8 C8         -1.6362   -0.6013    2.0390 C.2       1 <0>         0.0244
      9 C9         -1.4263   -1.3910    0.9962 C.2       1 <0>         0.0722
     10 N1         -2.2266   -2.4917    0.7374 N.am      1 <0>        -0.6465
     11 H1         -2.0452   -3.0497   -0.0350 H         1 <0>         0.4211
     12 C10        -3.2583   -2.7915    1.5562 C.2       1 <0>         0.5838
     13 O1         -3.9668   -3.7578    1.3361 O.2       1 <0>        -0.4964
     14 C11        -3.5062   -1.9313    2.7130 C.2       1 <0>        -0.0445
     15 N2         -2.6751   -0.8484    2.9303 N.pl3     1 <0>        -0.3478
     16 C12        -3.0909   -0.2109    4.0523 C.2       1 <0>         0.0977
     17 C13        -4.1673   -0.8673    4.5596 C.2       1 <0>        -0.0854
     18 C14        -4.4457   -1.9500    3.7206 C.2       1 <0>        -0.0683
     19 Cl1        -5.0493   -0.4302    5.9895 Cl        1 <0>        -0.0049
     20 Cl2        -2.3654    1.2126    4.7313 Cl        1 <0>         0.0185
     21 C15         3.5599   -0.6853    0.0588 C.2       1 <0>         0.5697
     22 O2          4.6257   -0.1152   -0.0709 O.2       1 <0>        -0.4979
     23 N3          3.5253   -2.0248    0.2034 N.am      1 <0>        -0.6167
     24 C16         4.7590   -2.8186    0.1214 C.3       1 <0>         0.1163
     25 C17         4.5655   -3.9243   -0.9211 C.3       1 <0>        -0.1556
     26 C18         3.3170   -4.7373   -0.5709 C.3       1 <0>         0.0301
     27 C19         2.0880   -3.8258   -0.5997 C.3       1 <0>        -0.1603
     28 C20         2.2542   -2.7184    0.4520 C.3       1 <0>         0.1033
     29 N4          3.1470   -5.8192   -1.5499 N.4       1 <0>        -0.3933
     30 C21         4.2906   -6.7639   -1.4730 C.3       1 <0>        -0.0066
     31 C22         3.7197   -8.0630   -2.0952 C.3       1 <0>        -0.1452
     32 C23         2.2612   -8.0796   -1.5831 C.3       1 <0>        -0.1447
     33 C24         1.9436   -6.6157   -1.2259 C.3       1 <0>        -0.0101
     34 F1          2.8621    1.0573   -2.0465 F         1 <0>        -0.1199
     35 H2         -0.9742    2.1132    0.0594 H         1 <0>         0.1479
     36 H3          0.5888    2.3207   -1.8272 H         1 <0>         0.1531
     37 H4          1.6330   -0.6789    1.9518 H         1 <0>         0.1433
     38 H5         -0.1750    0.4403    3.1941 H         1 <0>         0.1045
     39 H6         -1.3289    1.4895    2.3362 H         1 <0>         0.1064
     40 H7         -0.6072   -1.1700    0.3279 H         1 <0>         0.1762
     41 H8         -5.2399   -2.6713    3.8449 H         1 <0>         0.1752
     42 H9          5.5877   -2.1763   -0.1767 H         1 <0>         0.1155
     43 H10         4.9712   -3.2653    1.0928 H         1 <0>         0.0848
     44 H11         4.4434   -3.4769   -1.9075 H         1 <0>         0.0928
     45 H12         5.4370   -4.5789   -0.9233 H         1 <0>         0.1031
     46 H13         3.4293   -5.1640    0.4258 H         1 <0>         0.1401
     47 H14         1.9893   -3.3793   -1.5892 H         1 <0>         0.0945
     48 H15         1.1962   -4.4102   -0.3731 H         1 <0>         0.1018
     49 H16         2.2664   -3.1571    1.4498 H         1 <0>         0.0886
     50 H17         1.4297   -2.0099    0.3721 H         1 <0>         0.1061
     51 H18         5.1337   -6.3956   -2.0575 H         1 <0>         0.1358
     52 H19         4.5832   -6.9301   -0.4363 H         1 <0>         0.1343
     53 H20         3.7458   -8.0131   -3.1837 H         1 <0>         0.0983
     54 H21         4.2650   -8.9352   -1.7348 H         1 <0>         0.1175
     55 H22         1.5894   -8.4323   -2.3656 H         1 <0>         0.1057
     56 H23         2.1779   -8.7113   -0.6987 H         1 <0>         0.1044
     57 H24         1.7189   -6.5332   -0.1625 H         1 <0>         0.1302
     58 H25         1.0964   -6.2650   -1.8154 H         1 <0>         0.1314
     59 H26         3.0715   -5.4378   -2.4810 H         1 <0>         0.4253
@<TRIPOS>BOND
     1    1    6 ar
     2    1    2 ar
     3    1   35 1
     4    2    3 ar
     5    2   36 1
     6    3    4 ar
     7    3   34 1
     8    4    5 ar
     9    4   21 1
    10    5    6 ar
    11    5   37 1
    12    6    7 1
    13    7    8 1
    14    7   38 1
    15    7   39 1
    16    8   15 1
    17    8    9 2
    18    9   10 1
    19    9   40 1
    20   10   11 1
    21   10   12 am
    22   12   13 2
    23   12   14 1
    24   14   18 2
    25   14   15 1
    26   15   16 1
    27   16   17 2
    28   16   20 1
    29   17   18 1
    30   17   19 1
    31   18   41 1
    32   21   22 2
    33   21   23 am
    34   23   28 1
    35   23   24 1
    36   24   25 1
    37   24   42 1
    38   24   43 1
    39   25   26 1
    40   25   44 1
    41   25   45 1
    42   26   27 1
    43   26   29 1
    44   26   46 1
    45   27   28 1
    46   27   47 1
    47   27   48 1
    48   28   49 1
    49   28   50 1
    50   29   33 1
    51   29   30 1
    52   29   59 1
    53   30   31 1
    54   30   51 1
    55   30   52 1
    56   31   32 1
    57   31   53 1
    58   31   54 1
    59   32   33 1
    60   32   55 1
    61   32   56 1
    62   33   57 1
    63   33   58 1
@<TRIPOS>MOLECULE
CHEMBL589834
   56    60     0     0     0
SMALL
USER_CHARGES

@<TRIPOS>ATOM
      1 C1         -0.0563    1.5469    0.0542 C.ar      1 <0>        -0.0503
      2 C2          0.8250    1.6635   -1.0045 C.ar      1 <0>        -0.1460
      3 C3          2.0032    0.9396   -1.0095 C.ar      1 <0>         0.1543
      4 C4          2.3003    0.0889    0.0602 C.ar      1 <0>        -0.1693
      5 C5          1.4038   -0.0219    1.1247 C.ar      1 <0>        -0.0621
      6 C6          0.2329    0.7065    1.1154 C.ar      1 <0>        -0.1029
      7 C7         -0.7348    0.5875    2.2645 C.3       1 <0>        -0.0335
      8 C8         -1.6426   -0.5936    2.0365 C.2       1 <0>         0.0244
      9 C9         -1.4327   -1.3846    0.9947 C.2       1 <0>         0.0722
     10 N1         -2.2347   -2.4840    0.7358 N.am      1 <0>        -0.6465
     11 H1         -2.0533   -3.0431   -0.0359 H         1 <0>         0.4210
     12 C10        -3.2680   -2.7813    1.5534 C.2       1 <0>         0.5839
     13 O1         -3.9779   -3.7465    1.3332 O.2       1 <0>        -0.4964
     14 C11        -3.5158   -1.9196    2.7092 C.2       1 <0>        -0.0446
     15 N2         -2.6831   -0.8381    2.9267 N.pl3     1 <0>        -0.3477
     16 C12        -3.0992   -0.1989    4.0475 C.2       1 <0>         0.0977
     17 C13        -4.1775   -0.8529    4.5540 C.2       1 <0>        -0.0854
     18 C14        -4.4567   -1.9358    3.7156 C.2       1 <0>        -0.0683
     19 Cl1        -5.0606   -0.4129    5.9823 Cl        1 <0>        -0.0048
     20 Cl2        -2.3720    1.2239    4.7263 Cl        1 <0>         0.0185
     21 C15         3.5560   -0.6886    0.0634 C.2       1 <0>         0.5697
     22 O2          4.6230   -0.1206   -0.0659 O.2       1 <0>        -0.4979
     23 N3          3.5189   -2.0279    0.2097 N.am      1 <0>        -0.6164
     24 C16         2.2455   -2.7195    0.4519 C.3       1 <0>         0.1031
     25 C17         2.0793   -3.8271   -0.5934 C.3       1 <0>        -0.1575
     26 C18         3.3066   -4.7408   -0.5622 C.3       1 <0>         0.0271
     27 C19         4.5570   -3.9304   -0.9116 C.3       1 <0>        -0.1529
     28 C20         4.7504   -2.8247    0.1239 C.3       1 <0>         0.1158
     29 N4          3.1358   -5.8234   -1.5403 N.4       1 <0>        -0.4119
     30 C21         3.9684   -7.0071   -1.2563 C.3       1 <0>         0.0000
     31 C22         2.7889   -7.8772   -1.7127 C.3       1 <0>        -0.1594
     32 C23         1.9516   -6.6641   -1.2838 C.3       1 <0>        -0.0020
     33 F1          2.8641    1.0533   -2.0444 F         1 <0>        -0.1199
     34 H2         -0.9730    2.1178    0.0554 H         1 <0>         0.1479
     35 H3          0.5928    2.3209   -1.8293 H         1 <0>         0.1531
     36 H4          1.6267   -0.6771    1.9538 H         1 <0>         0.1433
     37 H5         -0.1811    0.4464    3.1927 H         1 <0>         0.1046
     38 H6         -1.3319    1.4969    2.3323 H         1 <0>         0.1064
     39 H7         -0.6123   -1.1657    0.3273 H         1 <0>         0.1760
     40 H8         -5.2524   -2.6555    3.8394 H         1 <0>         0.1753
     41 H9          2.2514   -3.1572    1.4501 H         1 <0>         0.0881
     42 H10         1.4224   -2.0101    0.3665 H         1 <0>         0.1057
     43 H11         1.1862   -4.4097   -0.3673 H         1 <0>         0.1009
     44 H12         1.9826   -3.3814   -1.5834 H         1 <0>         0.0927
     45 H13         3.4170   -5.1667    0.4351 H         1 <0>         0.1397
     46 H14         5.4274   -4.5866   -0.9121 H         1 <0>         0.1021
     47 H15         4.4370   -3.4838   -1.8987 H         1 <0>         0.0911
     48 H16         5.5795   -2.1846   -0.1777 H         1 <0>         0.1150
     49 H17         4.9652   -3.2711    1.0949 H         1 <0>         0.0843
     50 H18         4.8429   -7.0879   -1.9018 H         1 <0>         0.1365
     51 H19         4.2110   -7.1240   -0.2001 H         1 <0>         0.1499
     52 H20         2.7696   -8.0764   -2.7842 H         1 <0>         0.1238
     53 H21         2.6291   -8.7673   -1.1043 H         1 <0>         0.1305
     54 H22         1.6560   -6.6894   -0.2350 H         1 <0>         0.1497
     55 H23         1.1169   -6.4541   -1.9527 H         1 <0>         0.1362
     56 H24         3.2024   -5.5047   -2.4954 H         1 <0>         0.4352
@<TRIPOS>BOND
     1    1    6 ar
     2    1    2 ar
     3    1   34 1
     4    2    3 ar
     5    2   35 1
     6    3    4 ar
     7    3   33 1
     8    4    5 ar
     9    4   21 1
    10    5    6 ar
    11    5   36 1
    12    6    7 1
    13    7    8 1
    14    7   37 1
    15    7   38 1
    16    8   15 1
    17    8    9 2
    18    9   10 1
    19    9   39 1
    20   10   11 1
    21   10   12 am
    22   12   13 2
    23   12   14 1
    24   14   18 2
    25   14   15 1
    26   15   16 1
    27   16   17 2
    28   16   20 1
    29   17   18 1
    30   17   19 1
    31   18   40 1
    32   21   22 2
    33   21   23 am
    34   23   28 1
    35   23   24 1
    36   24   25 1
    37   24   41 1
    38   24   42 1
    39   25   26 1
    40   25   43 1
    41   25   44 1
    42   26   27 1
    43   26   29 1
    44   26   45 1
    45   27   28 1
    46   27   46 1
    47   27   47 1
    48   28   48 1
    49   28   49 1
    50   29   32 1
    51   29   30 1
    52   29   56 1
    53   30   31 1
    54   30   50 1
    55   30   51 1
    56   31   32 1
    57   31   52 1
    58   31   53 1
    59   32   54 1
    60   32   55 1
@<TRIPOS>MOLECULE
CHEMBL595692
   43    46     0     0     0
SMALL
USER_CHARGES

@<TRIPOS>ATOM
      1 C1          0.0119    1.4261    0.0045 C.ar      1 <0>        -0.1098
      2 C2          1.2065    2.1215   -0.0064 C.ar      1 <0>        -0.1218
      3 C3          2.4061    1.4347   -0.0203 C.ar      1 <0>        -0.0996
      4 C4          2.4110    0.0524   -0.0229 C.ar      1 <0>        -0.1133
      5 C5          1.2164   -0.6431   -0.0111 C.ar      1 <0>        -0.0993
      6 C6          0.0169    0.0437    0.0014 C.ar      1 <0>        -0.1217
      7 C7          3.7187   -0.6964   -0.0391 C.3       1 <0>         0.1793
      8 N1          4.1581   -0.9416    1.3368 N.am      1 <0>        -0.7389
      9 C8          5.3108   -1.6005    1.5688 C.2       1 <0>         0.7134
     10 O1          5.9395   -2.0710    0.6406 O.2       1 <0>        -0.5795
     11 N2          5.7665   -1.7377    2.8297 N.am      1 <0>        -0.6227
     12 C9          4.9707   -1.2951    3.9791 C.3       1 <0>         0.1143
     13 C10         5.7328   -0.2691    4.7974 C.3       1 <0>        -0.0970
     14 C11         7.2208   -0.4593    4.7744 C.ar      1 <0>        -0.0740
     15 C12         7.9873    0.3455    5.6154 C.ar      1 <0>        -0.0937
     16 C13         9.3618    0.2309    5.6510 C.ar      1 <0>        -0.1215
     17 C14        10.0042   -0.6821    4.8386 C.ar      1 <0>        -0.0564
     18 C15         9.2507   -1.4842    3.9870 C.ar      1 <0>        -0.1244
     19 C16         7.8544   -1.3845    3.9814 C.ar      1 <0>        -0.0657
     20 C17         7.0760   -2.3417    3.1054 C.3       1 <0>         0.1888
     21 C18         7.8261   -2.5833    1.7988 C.3       1 <0>         0.1236
     22 N3          9.1945   -3.0230    2.0762 N.am      1 <0>        -0.7302
     23 C19         9.9037   -2.4559    3.0846 C.2       1 <0>         0.5598
     24 O2         11.0694   -2.7568    3.2520 O.2       1 <0>        -0.5323
     25 H1         -0.9252    1.9627    0.0199 H         1 <0>         0.1242
     26 H2          1.2026    3.2015   -0.0043 H         1 <0>         0.1249
     27 H3          3.3394    1.9781   -0.0295 H         1 <0>         0.1240
     28 H4          1.2203   -1.7231   -0.0135 H         1 <0>         0.1246
     29 H5         -0.9165   -0.4996    0.0102 H         1 <0>         0.1251
     30 H6          3.5860   -1.6484   -0.5532 H         1 <0>         0.0787
     31 H7          4.4704   -0.1037   -0.5604 H         1 <0>         0.0765
     32 H8          3.6195   -0.6298    2.0808 H         1 <0>         0.3970
     33 H9          4.0413   -0.8512    3.6225 H         1 <0>         0.0860
     34 H10         4.7389   -2.1550    4.6076 H         1 <0>         0.0785
     35 H11         5.5030    0.7240    4.4114 H         1 <0>         0.0836
     36 H12         5.3909   -0.3249    5.8309 H         1 <0>         0.0927
     37 H13         7.4977    1.0699    6.2494 H         1 <0>         0.1292
     38 H14         9.9370    0.8572    6.3168 H         1 <0>         0.1338
     39 H15        11.0801   -0.7725    4.8635 H         1 <0>         0.1398
     40 H16         6.9377   -3.2879    3.6285 H         1 <0>         0.0962
     41 H17         7.3098   -3.3511    1.2226 H         1 <0>         0.1154
     42 H18         7.8537   -1.6590    1.2218 H         1 <0>         0.0826
     43 H19         9.5964   -3.7165    1.5298 H         1 <0>         0.4098
@<TRIPOS>BOND
     1    1    6 ar
     2    1    2 ar
     3    1   25 1
     4    2    3 ar
     5    2   26 1
     6    3    4 ar
     7    3   27 1
     8    4    5 ar
     9    4    7 1
    10    5    6 ar
    11    5   28 1
    12    6   29 1
    13    7    8 1
    14    7   30 1
    15    7   31 1
    16    8    9 am
    17    8   32 1
    18    9   10 2
    19    9   11 am
    20   11   20 1
    21   11   12 1
    22   12   13 1
    23   12   33 1
    24   12   34 1
    25   13   14 1
    26   13   35 1
    27   13   36 1
    28   14   19 ar
    29   14   15 ar
    30   15   16 ar
    31   15   37 1
    32   16   17 ar
    33   16   38 1
    34   17   18 ar
    35   17   39 1
    36   18   23 1
    37   18   19 ar
    38   19   20 1
    39   20   21 1
    40   20   40 1
    41   21   22 1
    42   21   41 1
    43   21   42 1
    44   22   23 am
    45   22   43 1
    46   23   24 2
@<TRIPOS>MOLECULE
CHEMBL595692__1
   43    46     0     0     0
SMALL
USER_CHARGES

@<TRIPOS>ATOM
      1 C1         -0.0148    1.3813    0.0093 C.ar      1 <0>        -0.1097
      2 C2          1.1732    2.0880    0.0017 C.ar      1 <0>        -0.1218
      3 C3          2.3792    1.4124   -0.0133 C.ar      1 <0>        -0.0995
      4 C4          2.3971    0.0302   -0.0203 C.ar      1 <0>        -0.1135
      5 C5          1.2090   -0.6765   -0.0118 C.ar      1 <0>        -0.0995
      6 C6          0.0031   -0.0009    0.0018 C.ar      1 <0>        -0.1217
      7 C7          3.7118   -0.7062   -0.0377 C.3       1 <0>         0.1793
      8 N1          4.1522   -0.9517    1.3378 N.am      1 <0>        -0.7387
      9 C8          5.3108   -1.6005    1.5688 C.2       1 <0>         0.7131
     10 O1          5.9448   -2.0619    0.6396 O.2       1 <0>        -0.5792
     11 N2          5.7665   -1.7377    2.8297 N.am      1 <0>        -0.6218
     12 C9          4.9707   -1.2951    3.9791 C.3       1 <0>         0.1144
     13 C10         4.7109   -2.4493    4.9295 C.3       1 <0>        -0.0970
     14 C11         5.8091   -3.4711    4.9569 C.ar      1 <0>        -0.0742
     15 C12         5.7227   -4.4861    5.9081 C.ar      1 <0>        -0.0944
     16 C13         6.6930   -5.4630    5.9960 C.ar      1 <0>        -0.1213
     17 C14         7.7666   -5.4561    5.1278 C.ar      1 <0>        -0.0566
     18 C15         7.8588   -4.4538    4.1670 C.ar      1 <0>        -0.1260
     19 C16         6.8873   -3.4478    4.1065 C.ar      1 <0>        -0.0668
     20 C17         7.0760   -2.3417    3.1054 C.3       1 <0>         0.1880
     21 C18         7.6749   -2.9023    1.8188 C.3       1 <0>         0.1225
     22 N3          8.8950   -3.6545    2.1157 N.am      1 <0>        -0.7223
     23 C19         8.9800   -4.4267    3.2040 C.2       1 <0>         0.5598
     24 O2          9.9654   -5.1124    3.3947 O.2       1 <0>        -0.5379
     25 H1         -0.9569    1.9091    0.0256 H         1 <0>         0.1242
     26 H2          1.1593    3.1679    0.0072 H         1 <0>         0.1251
     27 H3          3.3074    1.9645   -0.0199 H         1 <0>         0.1244
     28 H4          1.2230   -1.7564   -0.0177 H         1 <0>         0.1242
     29 H5         -0.9251   -0.5530    0.0080 H         1 <0>         0.1250
     30 H6          3.5884   -1.6577   -0.5549 H         1 <0>         0.0781
     31 H7          4.4583   -0.1048   -0.5564 H         1 <0>         0.0773
     32 H8          3.6100   -0.6473    2.0823 H         1 <0>         0.3970
     33 H9          5.5103   -0.5094    4.5079 H         1 <0>         0.0783
     34 H10         4.0184   -0.9000    3.6255 H         1 <0>         0.0860
     35 H11         4.5825   -2.0496    5.9354 H         1 <0>         0.0930
     36 H12         3.7847   -2.9420    4.6335 H         1 <0>         0.0835
     37 H13         4.8834   -4.5080    6.5874 H         1 <0>         0.1289
     38 H14         6.6127   -6.2354    6.7465 H         1 <0>         0.1335
     39 H15         8.5269   -6.2203    5.1940 H         1 <0>         0.1396
     40 H16         7.7441   -1.5878    3.5220 H         1 <0>         0.0952
     41 H17         6.9508   -3.5623    1.3410 H         1 <0>         0.0954
     42 H18         7.9125   -2.0807    1.1430 H         1 <0>         0.1075
     43 H19         9.6584   -3.5859    1.5213 H         1 <0>         0.4087
@<TRIPOS>BOND
     1    1    6 ar
     2    1    2 ar
     3    1   25 1
     4    2    3 ar
     5    2   26 1
     6    3    4 ar
     7    3   27 1
     8    4    5 ar
     9    4    7 1
    10    5    6 ar
    11    5   28 1
    12    6   29 1
    13    7    8 1
    14    7   30 1
    15    7   31 1
    16    8    9 am
    17    8   32 1
    18    9   10 2
    19    9   11 am
    20   11   20 1
    21   11   12 1
    22   12   13 1
    23   12   33 1
    24   12   34 1
    25   13   14 1
    26   13   35 1
    27   13   36 1
    28   14   19 ar
    29   14   15 ar
    30   15   16 ar
    31   15   37 1
    32   16   17 ar
    33   16   38 1
    34   17   18 ar
    35   17   39 1
    36   18   23 1
    37   18   19 ar
    38   19   20 1
    39   20   21 1
    40   20   40 1
    41   21   22 1
    42   21   41 1
    43   21   42 1
    44   22   23 am
    45   22   43 1
    46   23   24 2
@<TRIPOS>MOLECULE
CHEMBL595693
   39    42     0     0     0
SMALL
USER_CHARGES

@<TRIPOS>ATOM
      1 C1         -0.0124    1.3837    0.0697 C.ar      1 <0>        -0.1140
      2 C2          0.4710    0.7737    1.2124 C.ar      1 <0>        -0.1038
      3 C3          1.6756    0.0981    1.1793 C.ar      1 <0>        -0.1195
      4 C4          2.4000    0.0317   -0.0020 C.ar      1 <0>         0.1008
      5 C5          1.9125    0.6442   -1.1472 C.ar      1 <0>        -0.1144
      6 C6          0.7077    1.3189   -1.1088 C.ar      1 <0>        -0.1046
      7 O1          3.5857   -0.6321   -0.0370 O.3       1 <0>        -0.3026
      8 C7          3.5616   -1.9752    0.0597 C.2       1 <0>         0.6546
      9 O2          2.4991   -2.5649    0.0658 O.2       1 <0>        -0.5466
     10 N1          4.7158   -2.6652    0.1497 N.am      1 <0>        -0.5851
     11 C8          6.0131   -1.9818    0.1511 C.3       1 <0>         0.1113
     12 C9          6.8811   -2.4736   -0.9925 C.3       1 <0>        -0.0983
     13 C10         6.6383   -3.9066   -1.3648 C.ar      1 <0>        -0.0724
     14 C11         7.4926   -4.4832   -2.3031 C.ar      1 <0>        -0.0925
     15 C12         7.3338   -5.7957   -2.6976 C.ar      1 <0>        -0.1189
     16 C13         6.3106   -6.5600   -2.1731 C.ar      1 <0>        -0.0559
     17 C14         5.4449   -5.9927   -1.2431 C.ar      1 <0>        -0.1228
     18 C15         5.6334   -4.6705   -0.8238 C.ar      1 <0>        -0.0704
     19 C16         4.7220   -4.1296    0.2562 C.3       1 <0>         0.1876
     20 C17         3.3088   -4.6737    0.0696 C.3       1 <0>         0.1198
     21 N2          3.3354   -6.1357    0.0028 N.am      1 <0>        -0.7294
     22 C18         4.3228   -6.7712   -0.6774 C.2       1 <0>         0.5605
     23 O3          4.2899   -7.9791   -0.8095 O.2       1 <0>        -0.5290
     24 H1         -0.9563    1.9079    0.0966 H         1 <0>         0.1301
     25 H2         -0.0933    0.8257    2.1318 H         1 <0>         0.1316
     26 H3          2.0532   -0.3777    2.0723 H         1 <0>         0.1272
     27 H4          2.4749    0.5942   -2.0679 H         1 <0>         0.1315
     28 H5          0.3279    1.7962   -2.0001 H         1 <0>         0.1334
     29 H6          5.8535   -0.9088    0.0447 H         1 <0>         0.1043
     30 H7          6.5203   -2.1765    1.0960 H         1 <0>         0.0813
     31 H8          6.6913   -1.8503   -1.8663 H         1 <0>         0.0865
     32 H9          7.9274   -2.3604   -0.7088 H         1 <0>         0.0961
     33 H10         8.2915   -3.8934   -2.7278 H         1 <0>         0.1311
     34 H11         8.0123   -6.2267   -3.4189 H         1 <0>         0.1351
     35 H12         6.1833   -7.5872   -2.4816 H         1 <0>         0.1409
     36 H13         5.1003   -4.4217    1.2359 H         1 <0>         0.1052
     37 H14         2.6878   -4.3617    0.9093 H         1 <0>         0.1117
     38 H15         2.8883   -4.2775   -0.8547 H         1 <0>         0.0883
     39 H16         2.6385   -6.6495    0.4401 H         1 <0>         0.4110
@<TRIPOS>BOND
     1    1    6 ar
     2    1    2 ar
     3    1   24 1
     4    2    3 ar
     5    2   25 1
     6    3    4 ar
     7    3   26 1
     8    4    5 ar
     9    4    7 1
    10    5    6 ar
    11    5   27 1
    12    6   28 1
    13    7    8 1
    14    8    9 2
    15    8   10 am
    16   10   19 1
    17   10   11 1
    18   11   12 1
    19   11   29 1
    20   11   30 1
    21   12   13 1
    22   12   31 1
    23   12   32 1
    24   13   18 ar
    25   13   14 ar
    26   14   15 ar
    27   14   33 1
    28   15   16 ar
    29   15   34 1
    30   16   17 ar
    31   16   35 1
    32   17   22 1
    33   17   18 ar
    34   18   19 1
    35   19   20 1
    36   19   36 1
    37   20   21 1
    38   20   37 1
    39   20   38 1
    40   21   22 am
    41   21   39 1
    42   22   23 2
@<TRIPOS>MOLECULE
CHEMBL595693__1
   39    42     0     0     0
SMALL
USER_CHARGES

@<TRIPOS>ATOM
      1 C1         -0.0124    1.3837    0.0697 C.ar      1 <0>        -0.1138
      2 C2          0.4711    0.7737    1.2124 C.ar      1 <0>        -0.1037
      3 C3          1.6756    0.0981    1.1793 C.ar      1 <0>        -0.1195
      4 C4          2.4000    0.0317   -0.0020 C.ar      1 <0>         0.1007
      5 C5          1.9125    0.6442   -1.1472 C.ar      1 <0>        -0.1141
      6 C6          0.7077    1.3189   -1.1088 C.ar      1 <0>        -0.1047
      7 O1          3.5857   -0.6321   -0.0370 O.3       1 <0>        -0.3024
      8 C7          3.5616   -1.9752    0.0597 C.2       1 <0>         0.6549
      9 O2          2.4991   -2.5649    0.0658 O.2       1 <0>        -0.5467
     10 N1          4.7158   -2.6652    0.1497 N.am      1 <0>        -0.5846
     11 C8          6.0131   -1.9818    0.1511 C.3       1 <0>         0.1112
     12 C9          6.7919   -2.3093    1.4117 C.3       1 <0>        -0.0985
     13 C10         6.5152   -3.6795    1.9564 C.ar      1 <0>        -0.0723
     14 C11         7.2950   -4.1190    3.0247 C.ar      1 <0>        -0.0932
     15 C12         7.1010   -5.3665    3.5811 C.ar      1 <0>        -0.1186
     16 C13         6.1154   -6.2002    3.0913 C.ar      1 <0>        -0.0560
     17 C14         5.3235   -5.7688    2.0316 C.ar      1 <0>        -0.1245
     18 C15         5.5490   -4.5149    1.4515 C.ar      1 <0>        -0.0718
     19 C16         4.7220   -4.1296    0.2562 C.3       1 <0>         0.1873
     20 C17         3.2966   -4.6481    0.4220 C.3       1 <0>         0.1191
     21 N2          3.3113   -6.0851    0.7006 N.am      1 <0>        -0.7211
     22 C18         4.2423   -6.6226    1.4959 C.2       1 <0>         0.5600
     23 O3          4.1936   -7.8015    1.7880 O.2       1 <0>        -0.5342
     24 H1         -0.9563    1.9079    0.0966 H         1 <0>         0.1302
     25 H2         -0.0933    0.8257    2.1318 H         1 <0>         0.1315
     26 H3          2.0532   -0.3776    2.0723 H         1 <0>         0.1264
     27 H4          2.4748    0.5941   -2.0679 H         1 <0>         0.1322
     28 H5          0.3279    1.7962   -2.0001 H         1 <0>         0.1336
     29 H6          6.5876   -2.3006   -0.7187 H         1 <0>         0.0814
     30 H7          5.8515   -0.9051    0.0986 H         1 <0>         0.1044
     31 H8          7.8569   -2.2304    1.1931 H         1 <0>         0.0963
     32 H9          6.5415   -1.5739    2.1763 H         1 <0>         0.0864
     33 H10         8.0634   -3.4730    3.4230 H         1 <0>         0.1309
     34 H11         7.7224   -5.6921    4.4023 H         1 <0>         0.1349
     35 H12         5.9611   -7.1768    3.5259 H         1 <0>         0.1408
     36 H13         5.1652   -4.5581   -0.6427 H         1 <0>         0.1043
     37 H14         2.8157   -4.1248    1.2484 H         1 <0>         0.0899
     38 H15         2.7362   -4.4636   -0.4946 H         1 <0>         0.1128
     39 H16         2.6431   -6.6599    0.2958 H         1 <0>         0.4105
@<TRIPOS>BOND
     1    1    6 ar
     2    1    2 ar
     3    1   24 1
     4    2    3 ar
     5    2   25 1
     6    3    4 ar
     7    3   26 1
     8    4    5 ar
     9    4    7 1
    10    5    6 ar
    11    5   27 1
    12    6   28 1
    13    7    8 1
    14    8    9 2
    15    8   10 am
    16   10   19 1
    17   10   11 1
    18   11   12 1
    19   11   29 1
    20   11   30 1
    21   12   13 1
    22   12   31 1
    23   12   32 1
    24   13   18 ar
    25   13   14 ar
    26   14   15 ar
    27   14   33 1
    28   15   16 ar
    29   15   34 1
    30   16   17 ar
    31   16   35 1
    32   17   22 1
    33   17   18 ar
    34   18   19 1
    35   19   20 1
    36   19   36 1
    37   20   21 1
    38   20   37 1
    39   20   38 1
    40   21   22 am
    41   21   39 1
    42   22   23 2
@<TRIPOS>MOLECULE
CHEMBL595694
   42    45     0     0     0
SMALL
USER_CHARGES

@<TRIPOS>ATOM
      1 C1         -0.0167    1.3781    0.0096 C.ar      1 <0>        -0.1064
      2 C2          1.1709    2.0855    0.0021 C.ar      1 <0>        -0.1230
      3 C3          2.3773    1.4107   -0.0130 C.ar      1 <0>        -0.0933
      4 C4          2.3960    0.0285   -0.0201 C.ar      1 <0>        -0.1018
      5 C5          1.2084   -0.6789   -0.0117 C.ar      1 <0>        -0.0931
      6 C6          0.0021   -0.0041    0.0020 C.ar      1 <0>        -0.1230
      7 C7          3.7112   -0.7071   -0.0376 C.3       1 <0>         0.1281
      8 O1          4.1410   -0.9464    1.3041 O.3       1 <0>        -0.3547
      9 C8          5.3077   -1.5988    1.4650 C.2       1 <0>         0.6570
     10 O2          5.9435   -1.9553    0.4929 O.2       1 <0>        -0.5629
     11 N1          5.7703   -1.8565    2.7044 N.am      1 <0>        -0.5877
     12 C9          5.0229   -1.4445    3.8968 C.3       1 <0>         0.1132
     13 C10         5.8651   -0.5336    4.7710 C.3       1 <0>        -0.0980
     14 C11         7.3360   -0.8219    4.7067 C.ar      1 <0>        -0.0721
     15 C12         8.1678   -0.1332    5.5878 C.ar      1 <0>        -0.0929
     16 C13         9.5314   -0.3429    5.5895 C.ar      1 <0>        -0.1195
     17 C14        10.0981   -1.2368    4.7029 C.ar      1 <0>        -0.0563
     18 C15         9.2794   -1.9230    3.8112 C.ar      1 <0>        -0.1232
     19 C16         7.8933   -1.7288    3.8388 C.ar      1 <0>        -0.0695
     20 C17         7.0388   -2.5659    2.9123 C.3       1 <0>         0.1872
     21 C18         7.7523   -2.7637    1.5781 C.3       1 <0>         0.1208
     22 N2          9.0909   -3.3137    1.7980 N.am      1 <0>        -0.7299
     23 C19         9.8514   -2.8696    2.8305 C.2       1 <0>         0.5605
     24 O3         10.9958   -3.2600    2.9544 O.2       1 <0>        -0.5298
     25 H1         -0.9591    1.9053    0.0259 H         1 <0>         0.1255
     26 H2          1.1563    3.1654    0.0076 H         1 <0>         0.1264
     27 H3          3.3051    1.9634   -0.0196 H         1 <0>         0.1245
     28 H4          1.2231   -1.7588   -0.0176 H         1 <0>         0.1249
     29 H5         -0.9258   -0.5567    0.0082 H         1 <0>         0.1265
     30 H6          3.5884   -1.6586   -0.5549 H         1 <0>         0.0800
     31 H7          4.4573   -0.1052   -0.5563 H         1 <0>         0.0794
     32 H8          4.1214   -0.9143    3.5898 H         1 <0>         0.1043
     33 H9          4.7412   -2.3295    4.4673 H         1 <0>         0.0788
     34 H10         5.6989    0.4979    4.4602 H         1 <0>         0.0858
     35 H11         5.5345   -0.6400    5.8042 H         1 <0>         0.0948
     36 H12         7.7381    0.5754    6.2804 H         1 <0>         0.1306
     37 H13        10.1576    0.1937    6.2869 H         1 <0>         0.1347
     38 H14        11.1655   -1.4013    4.7012 H         1 <0>         0.1406
     39 H15         6.8429   -3.5356    3.3698 H         1 <0>         0.1032
     40 H16         7.1764   -3.4515    0.9589 H         1 <0>         0.1118
     41 H17         7.8354   -1.8044    1.0672 H         1 <0>         0.0881
     42 H18         9.4365   -3.9919    1.1968 H         1 <0>         0.4106
@<TRIPOS>BOND
     1    1    6 ar
     2    1    2 ar
     3    1   25 1
     4    2    3 ar
     5    2   26 1
     6    3    4 ar
     7    3   27 1
     8    4    5 ar
     9    4    7 1
    10    5    6 ar
    11    5   28 1
    12    6   29 1
    13    7    8 1
    14    7   30 1
    15    7   31 1
    16    8    9 1
    17    9   10 2
    18    9   11 am
    19   11   20 1
    20   11   12 1
    21   12   13 1
    22   12   32 1
    23   12   33 1
    24   13   14 1
    25   13   34 1
    26   13   35 1
    27   14   19 ar
    28   14   15 ar
    29   15   16 ar
    30   15   36 1
    31   16   17 ar
    32   16   37 1
    33   17   18 ar
    34   17   38 1
    35   18   23 1
    36   18   19 ar
    37   19   20 1
    38   20   21 1
    39   20   39 1
    40   21   22 1
    41   21   40 1
    42   21   41 1
    43   22   23 am
    44   22   42 1
    45   23   24 2
@<TRIPOS>MOLECULE
CHEMBL595694__1
   42    45     0     0     0
SMALL
USER_CHARGES

@<TRIPOS>ATOM
      1 C1         -0.0167    1.3781    0.0096 C.ar      1 <0>        -0.1064
      2 C2          1.1709    2.0855    0.0021 C.ar      1 <0>        -0.1230
      3 C3          2.3773    1.4107   -0.0130 C.ar      1 <0>        -0.0931
      4 C4          2.3960    0.0285   -0.0201 C.ar      1 <0>        -0.1019
      5 C5          1.2084   -0.6789   -0.0117 C.ar      1 <0>        -0.0933
      6 C6          0.0021   -0.0041    0.0020 C.ar      1 <0>        -0.1230
      7 C7          3.7112   -0.7071   -0.0376 C.3       1 <0>         0.1281
      8 O1          4.1410   -0.9464    1.3041 O.3       1 <0>        -0.3545
      9 C8          5.3077   -1.5988    1.4650 C.2       1 <0>         0.6572
     10 O2          5.9435   -1.9553    0.4929 O.2       1 <0>        -0.5630
     11 N1          5.7703   -1.8565    2.7044 N.am      1 <0>        -0.5871
     12 C9          5.0229   -1.4445    3.8968 C.3       1 <0>         0.1131
     13 C10         4.6974   -2.6435    4.7682 C.3       1 <0>        -0.0982
     14 C11         5.7229   -3.7366    4.7029 C.ar      1 <0>        -0.0720
     15 C12         5.5801   -4.8089    5.5818 C.ar      1 <0>        -0.0936
     16 C13         6.4819   -5.8530    5.5823 C.ar      1 <0>        -0.1192
     17 C14         7.5413   -5.8568    4.6969 C.ar      1 <0>        -0.0564
     18 C15         7.6889   -4.7968    3.8075 C.ar      1 <0>        -0.1250
     19 C16         6.7883   -3.7256    3.8362 C.ar      1 <0>        -0.0713
     20 C17         7.0388   -2.5659    2.9123 C.3       1 <0>         0.1869
     21 C18         7.5797   -3.0723    1.5784 C.3       1 <0>         0.1199
     22 N2          8.7491   -3.9247    1.7986 N.am      1 <0>        -0.7216
     23 C19         8.7958   -4.7768    2.8280 C.2       1 <0>         0.5600
     24 O3          9.7342   -5.5395    2.9514 O.2       1 <0>        -0.5351
     25 H1         -0.9591    1.9053    0.0259 H         1 <0>         0.1255
     26 H2          1.1563    3.1654    0.0076 H         1 <0>         0.1266
     27 H3          3.3051    1.9634   -0.0196 H         1 <0>         0.1249
     28 H4          1.2231   -1.7588   -0.0176 H         1 <0>         0.1245
     29 H5         -0.9258   -0.5567    0.0082 H         1 <0>         0.1264
     30 H6          3.5884   -1.6586   -0.5549 H         1 <0>         0.0795
     31 H7          4.4573   -0.1052   -0.5563 H         1 <0>         0.0802
     32 H8          5.6226   -0.7369    4.4694 H         1 <0>         0.0789
     33 H9          4.0952   -0.9615    3.5898 H         1 <0>         0.1044
     34 H10         4.6109   -2.3090    5.8020 H         1 <0>         0.0949
     35 H11         3.7355   -3.0498    4.4556 H         1 <0>         0.0857
     36 H12         4.7507   -4.8225    6.2734 H         1 <0>         0.1304
     37 H13         6.3590   -6.6700    6.2780 H         1 <0>         0.1345
     38 H14         8.2480   -6.6734    4.6948 H         1 <0>         0.1405
     39 H15         7.7630   -1.8908    3.3683 H         1 <0>         0.1028
     40 H16         6.8054   -3.6458    1.0689 H         1 <0>         0.0901
     41 H17         7.8640   -2.2224    0.9578 H         1 <0>         0.1126
     42 H18         9.5072   -3.8655    1.1963 H         1 <0>         0.4102
@<TRIPOS>BOND
     1    1    6 ar
     2    1    2 ar
     3    1   25 1
     4    2    3 ar
     5    2   26 1
     6    3    4 ar
     7    3   27 1
     8    4    5 ar
     9    4    7 1
    10    5    6 ar
    11    5   28 1
    12    6   29 1
    13    7    8 1
    14    7   30 1
    15    7   31 1
    16    8    9 1
    17    9   10 2
    18    9   11 am
    19   11   20 1
    20   11   12 1
    21   12   13 1
    22   12   32 1
    23   12   33 1
    24   13   14 1
    25   13   34 1
    26   13   35 1
    27   14   19 ar
    28   14   15 ar
    29   15   16 ar
    30   15   36 1
    31   16   17 ar
    32   16   37 1
    33   17   18 ar
    34   17   38 1
    35   18   23 1
    36   18   19 ar
    37   19   20 1
    38   20   21 1
    39   20   39 1
    40   21   22 1
    41   21   40 1
    42   21   41 1
    43   22   23 am
    44   22   42 1
    45   23   24 2
@<TRIPOS>MOLECULE
CHEMBL594599
   42    45     0     0     0
SMALL
USER_CHARGES

@<TRIPOS>ATOM
      1 C1          0.5568    1.6296    4.1253 C.ar      1 <0>        -0.1071
      2 C2          0.5994    0.2578    4.2907 C.ar      1 <0>        -0.1163
      3 C3          1.7753   -0.4303    4.0571 C.ar      1 <0>        -0.1038
      4 C4          2.9085    0.2532    3.6577 C.ar      1 <0>        -0.0979
      5 C5          2.8657    1.6249    3.4913 C.ar      1 <0>        -0.1041
      6 C6          1.6901    2.3132    3.7263 C.ar      1 <0>        -0.1161
      7 C7          4.1907   -0.4968    3.4040 C.3       1 <0>        -0.5851
      8 S1          4.2568   -1.0108    1.6656 S.o2      1 <0>         2.6033
      9 O1          3.2629   -1.9931    1.4075 O.2       1 <0>        -0.9389
     10 O2          4.3872    0.1264    0.8236 O.2       1 <0>        -0.9420
     11 N1          5.6959   -1.8160    1.5142 N.pl3     1 <0>        -0.9924
     12 C8          5.7560   -3.2807    1.5483 C.3       1 <0>         0.1170
     13 C9          6.6651   -3.7556    2.6668 C.3       1 <0>        -0.1007
     14 C10         7.7975   -2.8182    2.9668 C.ar      1 <0>        -0.0695
     15 C11         8.7642   -3.2441    3.8760 C.ar      1 <0>        -0.0922
     16 C12         9.8350   -2.4388    4.2050 C.ar      1 <0>        -0.1201
     17 C13         9.9599   -1.1844    3.6419 C.ar      1 <0>        -0.0553
     18 C14         8.9963   -0.7440    2.7398 C.ar      1 <0>        -0.1289
     19 C15         7.9304   -1.5802    2.3872 C.ar      1 <0>        -0.0683
     20 C16         6.9599   -1.0907    1.3347 C.3       1 <0>         0.1803
     21 C17         6.7292    0.4093    1.4925 C.3       1 <0>         0.0669
     22 N2          8.0087    1.1203    1.4862 N.am      1 <0>        -0.7191
     23 C18         9.0821    0.6019    2.1348 C.2       1 <0>         0.5619
     24 O3         10.1146    1.2392    2.2070 O.2       1 <0>        -0.5231
     25 H1         -0.3631    2.1667    4.3034 H         1 <0>         0.1293
     26 H2         -0.2859   -0.2762    4.6028 H         1 <0>         0.1310
     27 H3          1.8088   -1.5019    4.1870 H         1 <0>         0.1303
     28 H4          3.7511    2.1590    3.1796 H         1 <0>         0.1298
     29 H5          1.6567    3.3849    3.5967 H         1 <0>         0.1309
     30 H6          5.0398    0.1502    3.6241 H         1 <0>         0.1410
     31 H7          4.2294   -1.3776    4.0450 H         1 <0>         0.1437
     32 H8          4.7534   -3.6773    1.7079 H         1 <0>         0.1078
     33 H9          6.1383   -3.6464    0.5953 H         1 <0>         0.0832
     34 H10         6.0686   -3.8810    3.5704 H         1 <0>         0.0847
     35 H11         7.0799   -4.7249    2.3901 H         1 <0>         0.0957
     36 H12         8.6734   -4.2197    4.3304 H         1 <0>         0.1310
     37 H13        10.5782   -2.7910    4.9050 H         1 <0>         0.1346
     38 H14        10.7964   -0.5515    3.8991 H         1 <0>         0.1402
     39 H15         7.3602   -1.2971    0.3421 H         1 <0>         0.1108
     40 H16         6.1123    0.7686    0.6688 H         1 <0>         0.1510
     41 H17         6.2155    0.5986    2.4350 H         1 <0>         0.0613
     42 H18         8.0845    1.9692    1.0231 H         1 <0>         0.4154
@<TRIPOS>BOND
     1    1    6 ar
     2    1    2 ar
     3    1   25 1
     4    2    3 ar
     5    2   26 1
     6    3    4 ar
     7    3   27 1
     8    4    5 ar
     9    4    7 1
    10    5    6 ar
    11    5   28 1
    12    6   29 1
    13    7    8 1
    14    7   30 1
    15    7   31 1
    16    8    9 2
    17    8   10 2
    18    8   11 1
    19   11   20 1
    20   11   12 1
    21   12   13 1
    22   12   32 1
    23   12   33 1
    24   13   14 1
    25   13   34 1
    26   13   35 1
    27   14   19 ar
    28   14   15 ar
    29   15   16 ar
    30   15   36 1
    31   16   17 ar
    32   16   37 1
    33   17   18 ar
    34   17   38 1
    35   18   23 1
    36   18   19 ar
    37   19   20 1
    38   20   21 1
    39   20   39 1
    40   21   22 1
    41   21   40 1
    42   21   41 1
    43   22   23 am
    44   22   42 1
    45   23   24 2
@<TRIPOS>MOLECULE
CHEMBL594599__1
   42    45     0     0     0
SMALL
USER_CHARGES

@<TRIPOS>ATOM
      1 C1          0.0496    1.4958    0.0138 C.ar      1 <0>        -0.1071
      2 C2          1.2404    2.1944    0.0830 C.ar      1 <0>        -0.1160
      3 C3          2.4432    1.5134    0.0676 C.ar      1 <0>        -0.1041
      4 C4          2.4553    0.1336   -0.0163 C.ar      1 <0>        -0.0980
      5 C5          1.2644   -0.5651   -0.0845 C.ar      1 <0>        -0.1038
      6 C6          0.0616    0.1160   -0.0706 C.ar      1 <0>        -0.1163
      7 C7          3.7666   -0.6088   -0.0340 C.3       1 <0>        -0.5854
      8 S1          4.2568   -1.0108    1.6656 S.o2      1 <0>         2.6034
      9 O1          4.5788    0.1769    2.3761 O.2       1 <0>        -0.9419
     10 O2          3.3631   -1.9666    2.2196 O.2       1 <0>        -0.9386
     11 N1          5.6959   -1.8160    1.5142 N.pl3     1 <0>        -0.9916
     12 C8          5.7560   -3.2807    1.5483 C.3       1 <0>         0.1170
     13 C9          6.3758   -3.8231    0.2737 C.3       1 <0>        -0.1009
     14 C10         7.3978   -2.9115   -0.3390 C.ar      1 <0>        -0.0695
     15 C11         8.1230   -3.3938   -1.4272 C.ar      1 <0>        -0.0928
     16 C12         9.0792   -2.6152   -2.0460 C.ar      1 <0>        -0.1198
     17 C13         9.3262   -1.3323   -1.5994 C.ar      1 <0>        -0.0554
     18 C14         8.6022   -0.8360   -0.5197 C.ar      1 <0>        -0.1307
     19 C15         7.6566   -1.6441    0.1225 C.ar      1 <0>        -0.0699
     20 C16         6.9599   -1.0907    1.3347 C.3       1 <0>         0.1799
     21 C17         6.6860    0.3979    1.1418 C.3       1 <0>         0.0660
     22 N2          7.9231    1.0977    0.7917 N.am      1 <0>        -0.7108
     23 C18         8.8205    0.5409   -0.0283 C.2       1 <0>         0.5616
     24 O3          9.8019    1.1662   -0.3797 O.2       1 <0>        -0.5283
     25 H1         -0.8903    2.0276    0.0303 H         1 <0>         0.1293
     26 H2          1.2310    3.2724    0.1486 H         1 <0>         0.1309
     27 H3          3.3736    2.0593    0.1209 H         1 <0>         0.1298
     28 H4          1.2739   -1.6430   -0.1505 H         1 <0>         0.1303
     29 H5         -0.8687   -0.4298   -0.1243 H         1 <0>         0.1310
     30 H6          3.6554   -1.5290   -0.6075 H         1 <0>         0.1437
     31 H7          4.5317    0.0161   -0.4947 H         1 <0>         0.1409
     32 H8          6.3567   -3.5954    2.4016 H         1 <0>         0.0834
     33 H9          4.7469   -3.6788    1.6543 H         1 <0>         0.1077
     34 H10         6.8510   -4.7783    0.4970 H         1 <0>         0.0958
     35 H11         5.5821   -3.9946   -0.4535 H         1 <0>         0.0847
     36 H12         7.9331   -4.3924   -1.7920 H         1 <0>         0.1307
     37 H13         9.6367   -3.0107   -2.8822 H         1 <0>         0.1344
     38 H14        10.0736   -0.7206   -2.0828 H         1 <0>         0.1402
     39 H15         7.5908   -1.2362    2.2116 H         1 <0>         0.1104
     40 H16         5.9573    0.5305    0.3420 H         1 <0>         0.0634
     41 H17         6.2846    0.8141    2.0658 H         1 <0>         0.1517
     42 H18         8.1019    1.9742    1.1667 H         1 <0>         0.4149
@<TRIPOS>BOND
     1    1    6 ar
     2    1    2 ar
     3    1   25 1
     4    2    3 ar
     5    2   26 1
     6    3    4 ar
     7    3   27 1
     8    4    5 ar
     9    4    7 1
    10    5    6 ar
    11    5   28 1
    12    6   29 1
    13    7    8 1
    14    7   30 1
    15    7   31 1
    16    8    9 2
    17    8   10 2
    18    8   11 1
    19   11   20 1
    20   11   12 1
    21   12   13 1
    22   12   32 1
    23   12   33 1
    24   13   14 1
    25   13   34 1
    26   13   35 1
    27   14   19 ar
    28   14   15 ar
    29   15   16 ar
    30   15   36 1
    31   16   17 ar
    32   16   37 1
    33   17   18 ar
    34   17   38 1
    35   18   23 1
    36   18   19 ar
    37   19   20 1
    38   20   21 1
    39   20   39 1
    40   21   22 1
    41   21   40 1
    42   21   41 1
    43   22   23 am
    44   22   42 1
    45   23   24 2
@<TRIPOS>MOLECULE
CHEMBL383070
   71    75     0     0     0
SMALL
USER_CHARGES

@<TRIPOS>ATOM
      1 C1          0.4601    1.6077   -0.4106 C.3       1 <0>         0.0269
      2 O1          0.4768    0.1794   -0.3712 O.3       1 <0>        -0.3179
      3 C2         -0.7216   -0.4484   -0.2426 C.ar      1 <0>         0.1298
      4 C3         -1.8904    0.2951   -0.1618 C.ar      1 <0>        -0.2115
      5 C4         -3.1072   -0.3453   -0.0316 C.ar      1 <0>        -0.0765
      6 C5         -3.1613   -1.7262    0.0182 C.ar      1 <0>        -0.1535
      7 C6         -1.9982   -2.4692   -0.0617 C.ar      1 <0>        -0.0443
      8 C7         -0.7790   -1.8336   -0.1977 C.ar      1 <0>        -0.1489
      9 C8         -2.0608   -3.9739   -0.0065 C.3       1 <0>        -0.0658
     10 C9         -2.2107   -4.5304   -1.4238 C.3       1 <0>        -0.1341
     11 C10        -2.2733   -6.0351   -1.3687 C.2       1 <0>         0.5167
     12 O2         -2.2047   -6.6061   -0.3010 O.2       1 <0>        -0.5258
     13 N1         -2.4054   -6.7461   -2.5060 N.am      1 <0>        -0.6003
     14 C11        -2.4737   -8.1655   -2.4899 C.3       1 <0>         0.1134
     15 C12        -1.0854   -8.8841   -2.4525 C.3       1 <0>        -0.1487
     16 C13        -0.1130   -8.0631   -3.3610 C.3       1 <0>         0.1149
     17 N2         -0.7065   -7.5369   -4.5401 N.am      1 <0>        -0.5940
     18 C14        -1.1843   -6.1314   -4.4865 C.3       1 <0>         0.0669
     19 C15        -2.4925   -6.0805   -3.8312 C.3       1 <0>         0.0733
     20 C16        -0.8301   -8.2801   -5.6577 C.2       1 <0>         0.5627
     21 O3         -0.4283   -9.4272   -5.6722 O.2       1 <0>        -0.5235
     22 C17        -1.4543   -7.7001   -6.8659 C.ar      1 <0>        -0.1282
     23 C18        -1.0654   -8.1357   -8.1338 C.ar      1 <0>        -0.0592
     24 C19        -1.6521   -7.5908   -9.2569 C.ar      1 <0>        -0.1197
     25 C20        -2.6239   -6.6141   -9.1288 C.ar      1 <0>        -0.0775
     26 C21        -3.0139   -6.1779   -7.8753 C.ar      1 <0>        -0.0823
     27 C22        -2.4391   -6.7188   -6.7436 C.ar      1 <0>        -0.1043
     28 C23        -4.0727   -5.1134   -7.7454 C.3       1 <0>        -0.0189
     29 C24        -5.4304   -5.7624   -7.6654 C.2       1 <0>         0.1356
     30 C25        -6.6304   -4.9349   -7.5405 C.ar      1 <0>        -0.0602
     31 C26        -6.5628   -3.5412   -7.4924 C.ar      1 <0>        -0.0981
     32 C27        -7.7127   -2.8116   -7.3756 C.ar      1 <0>        -0.0869
     33 C28        -8.9506   -3.4373   -7.3034 C.ar      1 <0>        -0.1102
     34 C29        -9.0481   -4.8108   -7.3480 C.ar      1 <0>        -0.0543
     35 C30        -7.8885   -5.5756   -7.4679 C.ar      1 <0>        -0.1252
     36 C31        -7.9254   -7.0422   -7.5218 C.2       1 <0>         0.5279
     37 N3         -6.7625   -7.7168   -7.6379 N.am      1 <0>        -0.5337
     38 N4         -5.5355   -7.0571   -7.7127 N.2       1 <0>        -0.2182
     39 O4         -8.9857   -7.6389   -7.4624 O.2       1 <0>        -0.5195
     40 H1          1.4791    1.9803   -0.5153 H         1 <0>         0.1012
     41 H2         -0.1375    1.9409   -1.2590 H         1 <0>         0.0559
     42 H3          0.0260    1.9916    0.5127 H         1 <0>         0.0560
     43 H4         -1.8486    1.3736   -0.2003 H         1 <0>         0.1273
     44 H5         -4.0172    0.2329    0.0317 H         1 <0>         0.1253
     45 H6         -4.1137   -2.2251    0.1201 H         1 <0>         0.1238
     46 H7          0.1289   -2.4146   -0.2646 H         1 <0>         0.1300
     47 H8         -1.1443   -4.3595    0.4401 H         1 <0>         0.0833
     48 H9         -2.9156   -4.2802    0.5964 H         1 <0>         0.0841
     49 H10        -3.1272   -4.1447   -1.8705 H         1 <0>         0.0967
     50 H11        -1.3559   -4.2241   -2.0268 H         1 <0>         0.0960
     51 H12        -3.0453   -8.4735   -1.6144 H         1 <0>         0.0740
     52 H13        -3.0090   -8.4953   -3.3802 H         1 <0>         0.0684
     53 H14        -0.7072   -8.9075   -1.4304 H         1 <0>         0.0812
     54 H15        -1.1829   -9.8996   -2.8362 H         1 <0>         0.0801
     55 H16         0.2876   -7.2344   -2.7771 H         1 <0>         0.0718
     56 H17         0.7162   -8.7086   -3.6506 H         1 <0>         0.0749
     57 H18        -0.4720   -5.5272   -3.9246 H         1 <0>         0.0888
     58 H19        -1.2721   -5.7391   -5.4997 H         1 <0>         0.1135
     59 H20        -3.2291   -6.5953   -4.4481 H         1 <0>         0.0921
     60 H21        -2.7950   -5.0420   -3.6964 H         1 <0>         0.1036
     61 H22        -0.3065   -8.8975   -8.2351 H         1 <0>         0.1323
     62 H23        -1.3521   -7.9270  -10.2385 H         1 <0>         0.1309
     63 H24        -3.0797   -6.1901  -10.0114 H         1 <0>         0.1262
     64 H25        -2.7474   -6.3805   -5.7654 H         1 <0>         0.1440
     65 H26        -3.8942   -4.5318   -6.8410 H         1 <0>         0.1059
     66 H27        -4.0350   -4.4556   -8.6137 H         1 <0>         0.1095
     67 H28        -5.6065   -3.0421   -7.5468 H         1 <0>         0.1418
     68 H29        -7.6579   -1.7336   -7.3385 H         1 <0>         0.1366
     69 H30        -9.8462   -2.8409   -7.2109 H         1 <0>         0.1374
     70 H31       -10.0139   -5.2907   -7.2914 H         1 <0>         0.1433
     71 H32        -6.7805   -8.6859   -7.6740 H         1 <0>         0.4370
@<TRIPOS>BOND
     1    1    2 1
     2    1   40 1
     3    1   41 1
     4    1   42 1
     5    2    3 1
     6    3    8 ar
     7    3    4 ar
     8    4    5 ar
     9    4   43 1
    10    5    6 ar
    11    5   44 1
    12    6    7 ar
    13    6   45 1
    14    7    8 ar
    15    7    9 1
    16    8   46 1
    17    9   10 1
    18    9   47 1
    19    9   48 1
    20   10   11 1
    21   10   49 1
    22   10   50 1
    23   11   12 2
    24   11   13 am
    25   13   19 1
    26   13   14 1
    27   14   15 1
    28   14   51 1
    29   14   52 1
    30   15   16 1
    31   15   53 1
    32   15   54 1
    33   16   17 1
    34   16   55 1
    35   16   56 1
    36   17   18 1
    37   17   20 am
    38   18   19 1
    39   18   57 1
    40   18   58 1
    41   19   59 1
    42   19   60 1
    43   20   21 2
    44   20   22 1
    45   22   27 ar
    46   22   23 ar
    47   23   24 ar
    48   23   61 1
    49   24   25 ar
    50   24   62 1
    51   25   26 ar
    52   25   63 1
    53   26   27 ar
    54   26   28 1
    55   27   64 1
    56   28   29 1
    57   28   65 1
    58   28   66 1
    59   29   38 2
    60   29   30 1
    61   30   35 ar
    62   30   31 ar
    63   31   32 ar
    64   31   67 1
    65   32   33 ar
    66   32   68 1
    67   33   34 ar
    68   33   69 1
    69   34   35 ar
    70   34   70 1
    71   35   36 1
    72   36   37 am
    73   36   39 2
    74   37   38 1
    75   37   71 1
@<TRIPOS>MOLECULE
CHEMBL84096
   51    54     0     0     0
SMALL
USER_CHARGES

@<TRIPOS>ATOM
      1 C1         -0.0168    1.3865    0.0097 C.ar      1 <0>        -0.1095
      2 C2          1.1462    2.1050    0.0024 C.ar      1 <0>        -0.0976
      3 C3          2.3708    1.4346   -0.0126 C.ar      1 <0>        -0.0046
      4 C4          2.3954    0.0237   -0.0207 C.ar      1 <0>        -0.1218
      5 C5          1.1988   -0.6916   -0.0133 C.ar      1 <0>        -0.0819
      6 C6          0.0021   -0.0041    0.0020 C.ar      1 <0>         0.0933
      7 F1         -1.1625   -0.6888    0.0100 F         1 <0>        -0.1283
      8 C7          3.7032   -0.6397   -0.0374 C.2       1 <0>         0.5532
      9 N1          4.8148    0.1129   -0.0374 N.am      1 <0>        -0.6346
     10 C8          4.7985    1.4906   -0.0258 C.2       1 <0>         0.1544
     11 C9          3.6450    2.1690   -0.0221 C.2       1 <0>        -0.1730
     12 C10         3.5766    3.6753   -0.0438 C.3       1 <0>         0.1724
     13 N2          4.9055    4.2422    0.2047 N.am      1 <0>        -0.6072
     14 C11         6.0402    3.6142   -0.4939 C.3       1 <0>         0.1084
     15 C12         6.1450    2.1728   -0.0017 C.3       1 <0>        -0.1071
     16 C13         5.0810    5.2896    1.0345 C.2       1 <0>         0.5278
     17 O1          4.1269    5.7852    1.5958 O.2       1 <0>        -0.5245
     18 C14         6.4628    5.8450    1.2650 C.3       1 <0>        -0.1740
     19 C15         6.3838    7.0205    2.2411 C.3       1 <0>         0.0054
     20 N3          7.7307    7.5619    2.4657 N.4       1 <0>        -0.3829
     21 C16         8.5590    6.5490    3.1309 C.3       1 <0>        -0.0139
     22 C17         9.9854    7.0781    3.2944 C.3       1 <0>        -0.1453
     23 C18         9.9571    8.3533    4.1419 C.3       1 <0>        -0.1404
     24 C19         9.0314    9.3760    3.4767 C.3       1 <0>        -0.1460
     25 C20         7.6403    8.7618    3.3064 C.3       1 <0>        -0.0061
     26 O2          3.7797   -1.8552   -0.0506 O.2       1 <0>        -0.5095
     27 H1         -0.9635    1.9061    0.0260 H         1 <0>         0.1474
     28 H2          1.1179    3.1846    0.0079 H         1 <0>         0.1447
     29 H3          1.2081   -1.7716   -0.0192 H         1 <0>         0.1549
     30 H4          3.2183    4.0070   -1.0183 H         1 <0>         0.0907
     31 H5          2.8874    4.0171    0.7284 H         1 <0>         0.1086
     32 H6          5.8645    3.6258   -1.5695 H         1 <0>         0.0950
     33 H7          6.9600    4.1516   -0.2628 H         1 <0>         0.0973
     34 H8          6.5289    2.1703    1.0185 H         1 <0>         0.0959
     35 H9          6.8348    1.6250   -0.6437 H         1 <0>         0.1049
     36 H10         7.1018    5.0675    1.6836 H         1 <0>         0.1173
     37 H11         6.8797    6.1869    0.3176 H         1 <0>         0.1198
     38 H12         5.7448    7.7981    1.8225 H         1 <0>         0.1416
     39 H13         5.9669    6.6787    3.1885 H         1 <0>         0.1392
     40 H14         8.1403    6.3251    4.1121 H         1 <0>         0.1304
     41 H15         8.5756    5.6409    2.5282 H         1 <0>         0.1283
     42 H16        10.5983    6.3252    3.7901 H         1 <0>         0.1122
     43 H17        10.4052    7.3020    2.3137 H         1 <0>         0.0880
     44 H18         9.5852    8.1198    5.1395 H         1 <0>         0.0823
     45 H19        10.9635    8.7654    4.2140 H         1 <0>         0.0947
     46 H20         8.9623   10.2656    4.1026 H         1 <0>         0.1132
     47 H21         9.4314    9.6476    2.4998 H         1 <0>         0.0879
     48 H22         6.9786    9.4873    2.8333 H         1 <0>         0.1321
     49 H23         7.2412    8.4907    4.2839 H         1 <0>         0.1299
     50 H24         5.6743   -0.3366   -0.0457 H         1 <0>         0.4154
     51 H25         8.1469    7.8044    1.5791 H         1 <0>         0.4217
@<TRIPOS>BOND
     1    1    6 ar
     2    1    2 ar
     3    1   27 1
     4    2    3 ar
     5    2   28 1
     6    3   11 1
     7    3    4 ar
     8    4    5 ar
     9    4    8 1
    10    5    6 ar
    11    5   29 1
    12    6    7 1
    13    8    9 am
    14    8   26 2
    15    9   10 1
    16    9   50 1
    17   10   15 1
    18   10   11 2
    19   11   12 1
    20   12   13 1
    21   12   30 1
    22   12   31 1
    23   13   14 1
    24   13   16 am
    25   14   15 1
    26   14   32 1
    27   14   33 1
    28   15   34 1
    29   15   35 1
    30   16   17 2
    31   16   18 1
    32   18   19 1
    33   18   36 1
    34   18   37 1
    35   19   20 1
    36   19   38 1
    37   19   39 1
    38   20   25 1
    39   20   21 1
    40   20   51 1
    41   21   22 1
    42   21   40 1
    43   21   41 1
    44   22   23 1
    45   22   42 1
    46   22   43 1
    47   23   24 1
    48   23   44 1
    49   23   45 1
    50   24   25 1
    51   24   46 1
    52   24   47 1
    53   25   48 1
    54   25   49 1
@<TRIPOS>MOLECULE
CHEMBL560132
   43    46     0     0     0
SMALL
USER_CHARGES

@<TRIPOS>ATOM
      1 C1         -0.0170    1.3951   -0.0415 C.ar      1 <0>        -0.0370
      2 C2          1.1502    2.1021   -0.0253 C.ar      1 <0>        -0.1396
      3 C3          2.3750    1.4376   -0.0252 C.ar      1 <0>         0.1249
      4 C4          2.4055    0.0280   -0.0433 C.ar      1 <0>        -0.1079
      5 C5          3.8227   -0.3460   -0.0386 C.2       1 <0>        -0.1651
      6 C6          4.5279    0.7954   -0.0189 C.2       1 <0>         0.0640
      7 N1          3.6794    1.8691   -0.0107 N.pl3     1 <0>        -0.5889
      8 H1          3.9579    2.7982    0.0031 H         1 <0>         0.4207
      9 C7          4.3812   -1.7456   -0.0524 C.3       1 <0>        -0.0592
     10 C8          4.4664   -2.2748    1.3806 C.3       1 <0>         0.1204
     11 N2          5.0094   -3.6354    1.3672 N.am      1 <0>        -0.7246
     12 C9          5.1752   -4.3062    2.5243 C.2       1 <0>         0.5584
     13 O1          4.8743   -3.7825    3.5787 O.2       1 <0>        -0.5234
     14 C10         5.7243   -5.6822    2.5107 C.ar      1 <0>        -0.0893
     15 C11         6.0823   -6.3010    1.3092 C.ar      1 <0>        -0.1439
     16 C12         6.5910   -7.5850    1.3427 C.ar      1 <0>         0.0981
     17 N3          6.7394   -8.2246    2.4857 N.ar      1 <0>        -0.4681
     18 C13         6.4146   -7.6781    3.6404 C.ar      1 <0>         0.0996
     19 C14         5.9043   -6.3957    3.6996 C.ar      1 <0>        -0.1155
     20 C15         1.2147   -0.6890   -0.0599 C.ar      1 <0>         0.0072
     21 C16         0.0020   -0.0035   -0.0580 C.ar      1 <0>        -0.1656
     22 C17        -1.2534   -0.7820   -0.0719 C.2       1 <0>         0.5699
     23 O2         -2.3011   -0.2540   -0.3904 O.2       1 <0>        -0.5375
     24 N4         -1.2233   -2.0849    0.2723 N.am      1 <0>        -0.7282
     25 C18         0.0159   -2.7224    0.7097 C.3       1 <0>         0.1139
     26 C19         1.2102   -2.1940   -0.0811 C.3       1 <0>        -0.1090
     27 H2         -0.9615    1.9188   -0.0372 H         1 <0>         0.1392
     28 H3          1.1246    3.1818   -0.0128 H         1 <0>         0.1286
     29 H4          5.6061    0.8575   -0.0105 H         1 <0>         0.1742
     30 H5          3.7287   -2.3914   -0.6400 H         1 <0>         0.0816
     31 H6          5.3769   -1.7350   -0.4957 H         1 <0>         0.0814
     32 H7          5.1189   -1.6290    1.9682 H         1 <0>         0.0737
     33 H8          3.4707   -2.2853    1.8239 H         1 <0>         0.0740
     34 H9          5.2496   -4.0535    0.5255 H         1 <0>         0.4016
     35 H10         5.9627   -5.7832    0.3690 H         1 <0>         0.1390
     36 H11         6.8704   -8.0715    0.4199 H         1 <0>         0.1636
     37 H12         6.5528   -8.2391    4.5528 H         1 <0>         0.1655
     38 H13         5.6446   -5.9524    4.6496 H         1 <0>         0.1493
     39 H14        -2.0389   -2.6082    0.2290 H         1 <0>         0.4055
     40 H15         0.1693   -2.5177    1.7692 H         1 <0>         0.0684
     41 H16        -0.0637   -3.7993    0.5616 H         1 <0>         0.0900
     42 H17         1.1431   -2.5413   -1.1121 H         1 <0>         0.0902
     43 H18         2.1330   -2.5650    0.3650 H         1 <0>         0.0999
@<TRIPOS>BOND
     1    1   21 ar
     2    1    2 ar
     3    1   27 1
     4    2    3 ar
     5    2   28 1
     6    3    7 1
     7    3    4 ar
     8    4    5 1
     9    4   20 ar
    10    5    6 2
    11    5    9 1
    12    6    7 1
    13    6   29 1
    14    7    8 1
    15    9   10 1
    16    9   30 1
    17    9   31 1
    18   10   11 1
    19   10   32 1
    20   10   33 1
    21   11   12 am
    22   11   34 1
    23   12   13 2
    24   12   14 1
    25   14   19 ar
    26   14   15 ar
    27   15   16 ar
    28   15   35 1
    29   16   17 ar
    30   16   36 1
    31   17   18 ar
    32   18   19 ar
    33   18   37 1
    34   19   38 1
    35   20   26 1
    36   20   21 ar
    37   21   22 1
    38   22   23 2
    39   22   24 am
    40   24   25 1
    41   24   39 1
    42   25   26 1
    43   25   40 1
    44   25   41 1
    45   26   42 1
    46   26   43 1
@<TRIPOS>MOLECULE
CHEMBL578185
   39    42     0     0     0
SMALL
USER_CHARGES

@<TRIPOS>ATOM
      1 C1         -0.0167    1.3791    0.0096 C.ar      1 <0>        -0.1146
      2 C2          1.1686    2.0923    0.0021 C.ar      1 <0>        -0.1177
      3 C3          2.3774    1.4267   -0.0130 C.ar      1 <0>        -0.1062
      4 C4          2.4025    0.0330   -0.0207 C.ar      1 <0>        -0.0539
      5 C5          1.2049   -0.6804   -0.0131 C.ar      1 <0>        -0.1076
      6 C6          0.0021   -0.0041    0.0020 C.ar      1 <0>        -0.1187
      7 C7          3.6981   -0.6880   -0.0375 C.ar      1 <0>        -0.0232
      8 C8          4.8948    0.0290   -0.0398 C.ar      1 <0>        -0.1114
      9 C9          6.0982   -0.6394   -0.0558 C.ar      1 <0>        -0.0591
     10 C10         6.1208   -2.0360   -0.0693 C.ar      1 <0>        -0.0354
     11 C11         4.9220   -2.7530   -0.0665 C.ar      1 <0>        -0.0956
     12 C12         3.7196   -2.0828   -0.0452 C.ar      1 <0>        -0.1115
     13 C13         7.4118   -2.7544   -0.0870 C.2       1 <0>         0.3315
     14 N1          7.5562   -4.1143   -0.1066 N.pl3     1 <0>        -0.5937
     15 H1          6.8415   -4.7702   -0.1111 H         1 <0>         0.4251
     16 C14         8.9130   -4.3773   -0.1189 C.ar      1 <0>         0.0397
     17 C15         9.6653   -5.5423   -0.1404 C.ar      1 <0>        -0.0790
     18 C16        11.0454   -5.4784   -0.1486 C.ar      1 <0>        -0.1131
     19 C17        11.6951   -4.2580   -0.1359 C.ar      1 <0>        -0.0852
     20 C18        10.9652   -3.0722   -0.1147 C.ar      1 <0>        -0.0908
     21 C19         9.5538   -3.1258   -0.1058 C.ar      1 <0>         0.1065
     22 N2          8.5943   -2.1840   -0.0919 N.2       1 <0>        -0.4543
     23 C20        11.6594   -1.7725   -0.1017 C.2       1 <0>         0.5577
     24 O1         11.0169   -0.7401   -0.0832 O.2       1 <0>        -0.5111
     25 N3         13.0064   -1.7280   -0.1103 N.am      1 <0>        -0.8552
     26 H2         -0.9603    1.9042    0.0260 H         1 <0>         0.1242
     27 H3          1.1479    3.1721    0.0078 H         1 <0>         0.1262
     28 H4          3.3022    1.9845   -0.0192 H         1 <0>         0.1278
     29 H5          1.2183   -1.7603   -0.0194 H         1 <0>         0.1258
     30 H6         -0.9264   -0.5557    0.0079 H         1 <0>         0.1254
     31 H7          4.8771    1.1088   -0.0293 H         1 <0>         0.1355
     32 H8          7.0246   -0.0842   -0.0583 H         1 <0>         0.1458
     33 H9          4.9384   -3.8329   -0.0770 H         1 <0>         0.1229
     34 H10         2.7927   -2.6370   -0.0390 H         1 <0>         0.1333
     35 H11         9.1707   -6.5024   -0.1505 H         1 <0>         0.1303
     36 H12        11.6227   -6.3911   -0.1647 H         1 <0>         0.1401
     37 H13        12.7746   -4.2242   -0.1421 H         1 <0>         0.1357
     38 H14        13.5188   -2.5514   -0.1251 H         1 <0>         0.3985
     39 H15        13.4634   -0.8724   -0.1017 H         1 <0>         0.4054
@<TRIPOS>BOND
     1    1    6 ar
     2    1    2 ar
     3    1   26 1
     4    2    3 ar
     5    2   27 1
     6    3    4 ar
     7    3   28 1
     8    4    5 ar
     9    4    7 1
    10    5    6 ar
    11    5   29 1
    12    6   30 1
    13    7   12 ar
    14    7    8 ar
    15    8    9 ar
    16    8   31 1
    17    9   10 ar
    18    9   32 1
    19   10   11 ar
    20   10   13 1
    21   11   12 ar
    22   11   33 1
    23   12   34 1
    24   13   22 2
    25   13   14 1
    26   14   15 1
    27   14   16 1
    28   16   21 ar
    29   16   17 ar
    30   17   18 ar
    31   17   35 1
    32   18   19 ar
    33   18   36 1
    34   19   20 ar
    35   19   37 1
    36   20   21 ar
    37   20   23 1
    38   21   22 1
    39   23   24 2
    40   23   25 am
    41   25   38 1
    42   25   39 1
@<TRIPOS>MOLECULE
CHEMBL560133
   43    46     0     0     0
SMALL
USER_CHARGES

@<TRIPOS>ATOM
      1 C1          7.4696    1.5755   -0.9655 C.ar      1 <0>        -0.0805
      2 C2          6.2658    2.1907   -0.6591 C.ar      1 <0>        -0.1479
      3 C3          5.1568    1.4099   -0.3757 C.ar      1 <0>         0.0984
      4 N1          5.2325    0.0970   -0.3940 N.ar      1 <0>        -0.4607
      5 C4          6.3655   -0.5311   -0.6823 C.ar      1 <0>         0.0745
      6 C5          7.5200    0.1905   -0.9773 C.ar      1 <0>        -0.1108
      7 C6          6.4028   -2.0123   -0.6907 C.2       1 <0>         0.5719
      8 O1          7.4374   -2.5926   -0.9540 O.2       1 <0>        -0.5296
      9 N2          5.2891   -2.7160   -0.4062 N.am      1 <0>        -0.7127
     10 C7          5.3259   -4.1805   -0.4144 C.3       1 <0>         0.1197
     11 C8          3.9414   -4.7275   -0.0610 C.3       1 <0>        -0.0593
     12 C9          3.9793   -6.2340   -0.0694 C.2       1 <0>        -0.1628
     13 C10         4.1909   -7.0337    0.9871 C.2       1 <0>         0.0625
     14 N3          4.1541   -8.3446    0.5959 N.pl3     1 <0>        -0.5893
     15 H1          4.2802   -9.1048    1.1851 H         1 <0>         0.4203
     16 C11         3.9123   -8.4257   -0.7543 C.ar      1 <0>         0.1250
     17 C12         3.7858   -7.1052   -1.2321 C.ar      1 <0>        -0.1081
     18 C13         3.5289   -6.8792   -2.5794 C.ar      1 <0>         0.0084
     19 C14         3.3982   -7.9641   -3.4435 C.ar      1 <0>        -0.1667
     20 C15         3.5223   -9.2703   -2.9584 C.ar      1 <0>        -0.0372
     21 C16         3.7802   -9.4955   -1.6373 C.ar      1 <0>        -0.1402
     22 C17         3.1294   -7.7047   -4.8727 C.2       1 <0>         0.5702
     23 O2          2.6960   -8.5877   -5.5872 O.2       1 <0>        -0.5385
     24 N4          3.3699   -6.4773   -5.3751 N.am      1 <0>        -0.7281
     25 C18         3.9413   -5.4199   -4.5453 C.3       1 <0>         0.1140
     26 C19         3.3881   -5.4829   -3.1235 C.3       1 <0>        -0.1096
     27 H2          8.3472    2.1620   -1.1943 H         1 <0>         0.1440
     28 H3          6.1931    3.2681   -0.6411 H         1 <0>         0.1425
     29 H4          4.2174    1.8860   -0.1363 H         1 <0>         0.1648
     30 H5          8.4412   -0.3220   -1.2121 H         1 <0>         0.1489
     31 H6          4.4631   -2.2528   -0.1960 H         1 <0>         0.4119
     32 H7          5.6129   -4.5312   -1.4057 H         1 <0>         0.0727
     33 H8          6.0526   -4.5298    0.3191 H         1 <0>         0.0726
     34 H9          3.6544   -4.3768    0.9304 H         1 <0>         0.0817
     35 H10         3.2147   -4.3782   -0.7944 H         1 <0>         0.0819
     36 H11         4.3651   -6.6931    1.9971 H         1 <0>         0.1742
     37 H12         3.4177  -10.1058   -3.6346 H         1 <0>         0.1388
     38 H13         3.8719  -10.5079   -1.2726 H         1 <0>         0.1282
     39 H14         3.1602   -6.2932   -6.3041 H         1 <0>         0.4051
     40 H15         5.0247   -5.5354   -4.5136 H         1 <0>         0.0685
     41 H16         3.6979   -4.4511   -4.9817 H         1 <0>         0.0900
     42 H17         2.3348   -5.2023   -3.1321 H         1 <0>         0.0905
     43 H18         3.9406   -4.7898   -2.4891 H         1 <0>         0.1009
@<TRIPOS>BOND
     1    1    6 ar
     2    1    2 ar
     3    1   27 1
     4    2    3 ar
     5    2   28 1
     6    3    4 ar
     7    3   29 1
     8    4    5 ar
     9    5    6 ar
    10    5    7 1
    11    6   30 1
    12    7    8 2
    13    7    9 am
    14    9   10 1
    15    9   31 1
    16   10   11 1
    17   10   32 1
    18   10   33 1
    19   11   12 1
    20   11   34 1
    21   11   35 1
    22   12   17 1
    23   12   13 2
    24   13   14 1
    25   13   36 1
    26   14   15 1
    27   14   16 1
    28   16   21 ar
    29   16   17 ar
    30   17   18 ar
    31   18   26 1
    32   18   19 ar
    33   19   20 ar
    34   19   22 1
    35   20   21 ar
    36   20   37 1
    37   21   38 1
    38   22   23 2
    39   22   24 am
    40   24   25 1
    41   24   39 1
    42   25   26 1
    43   25   40 1
    44   25   41 1
    45   26   42 1
    46   26   43 1
@<TRIPOS>MOLECULE
CHEMBL558056
   49    52     0     0     0
SMALL
USER_CHARGES

@<TRIPOS>ATOM
      1 C1          5.3207    3.5321   -0.7390 C.ar      1 <0>        -0.0351
      2 C2          4.0279    3.2542   -0.4014 C.ar      1 <0>        -0.1303
      3 C3          3.6240    1.9376   -0.1895 C.ar      1 <0>         0.1238
      4 C4          4.5576    0.8896   -0.3240 C.ar      1 <0>        -0.1053
      5 C5          3.8227   -0.3460   -0.0386 C.2       1 <0>        -0.1953
      6 C6          2.5575    0.0066    0.2365 C.2       1 <0>         0.0869
      7 N1          2.4218    1.3657    0.1509 N.pl3     1 <0>        -0.5839
      8 H1          1.5983    1.8535    0.3078 H         1 <0>         0.4263
      9 C7          4.3812   -1.7456   -0.0524 C.3       1 <0>        -0.0649
     10 C8          4.3238   -2.3036   -1.4759 C.3       1 <0>        -0.0161
     11 N2          4.8682   -3.6679   -1.4893 N.4       1 <0>        -0.5091
     12 C9          4.8131   -4.2036   -2.8560 C.3       1 <0>         0.0255
     13 C10         3.3527   -4.3464   -3.2893 C.3       1 <0>        -0.1407
     14 C11         3.2953   -4.9044   -4.7128 C.3       1 <0>        -0.1184
     15 C12         3.9749   -6.2746   -4.7512 C.3       1 <0>        -0.1321
     16 C13         5.4353   -6.1319   -4.3179 C.3       1 <0>        -0.1180
     17 C14         5.4927   -5.5739   -2.8945 C.3       1 <0>        -0.1407
     18 C15         5.8736    1.1762   -0.6679 C.ar      1 <0>        -0.0094
     19 C16         6.2547    2.4998   -0.8765 C.ar      1 <0>        -0.1504
     20 C17         7.6564    2.7851   -1.2452 C.2       1 <0>         0.5655
     21 O1          8.1082    3.9073   -1.1235 O.2       1 <0>        -0.5234
     22 N3          8.4288    1.7866   -1.7176 N.am      1 <0>        -0.7294
     23 C18         7.8881    0.4452   -1.9215 C.3       1 <0>         0.1135
     24 C19         6.8968    0.0826   -0.8184 C.3       1 <0>        -0.1010
     25 H2          5.6237    4.5553   -0.9054 H         1 <0>         0.1445
     26 H3          3.3147    4.0586   -0.2976 H         1 <0>         0.1341
     27 H4          1.7634   -0.6809    0.4880 H         1 <0>         0.1763
     28 H5          5.4161   -1.7271    0.2891 H         1 <0>         0.0948
     29 H6          3.7912   -2.3788    0.6101 H         1 <0>         0.0954
     30 H7          3.2888   -2.3220   -1.8174 H         1 <0>         0.1354
     31 H8          4.9138   -1.6704   -2.1384 H         1 <0>         0.1321
     32 H9          5.8263   -3.6508   -1.1732 H         1 <0>         0.4269
     33 H10         5.3285   -3.5233   -3.5340 H         1 <0>         0.1388
     34 H11         2.8374   -5.0267   -2.6113 H         1 <0>         0.0870
     35 H12         2.8685   -3.3702   -3.2620 H         1 <0>         0.0867
     36 H13         2.2549   -5.0060   -5.0215 H         1 <0>         0.0842
     37 H14         3.8106   -4.2241   -5.3908 H         1 <0>         0.0744
     38 H15         3.4596   -6.9549   -4.0732 H         1 <0>         0.0703
     39 H16         3.9340   -6.6721   -5.7653 H         1 <0>         0.0793
     40 H17         5.9195   -7.1081   -4.3453 H         1 <0>         0.0851
     41 H18         5.9506   -5.4516   -4.9959 H         1 <0>         0.0746
     42 H19         6.5331   -5.4722   -2.5858 H         1 <0>         0.0877
     43 H20         4.9774   -6.2542   -2.2165 H         1 <0>         0.0871
     44 H21         9.3597    1.9619   -1.9260 H         1 <0>         0.4098
     45 H22         7.3809    0.4061   -2.8855 H         1 <0>         0.0658
     46 H23         8.7063   -0.2750   -1.9188 H         1 <0>         0.0907
     47 H24         7.4330   -0.0434    0.1222 H         1 <0>         0.0936
     48 H25         6.3945   -0.8502   -1.0748 H         1 <0>         0.0812
     49 H26         4.3220   -4.2540   -0.8760 H         1 <0>         0.4263
@<TRIPOS>BOND
     1    1   19 ar
     2    1    2 ar
     3    1   25 1
     4    2    3 ar
     5    2   26 1
     6    3    7 1
     7    3    4 ar
     8    4    5 1
     9    4   18 ar
    10    5    6 2
    11    5    9 1
    12    6    7 1
    13    6   27 1
    14    7    8 1
    15    9   10 1
    16    9   28 1
    17    9   29 1
    18   10   11 1
    19   10   30 1
    20   10   31 1
    21   11   12 1
    22   11   32 1
    23   11   49 1
    24   12   17 1
    25   12   13 1
    26   12   33 1
    27   13   14 1
    28   13   34 1
    29   13   35 1
    30   14   15 1
    31   14   36 1
    32   14   37 1
    33   15   16 1
    34   15   38 1
    35   15   39 1
    36   16   17 1
    37   16   40 1
    38   16   41 1
    39   17   42 1
    40   17   43 1
    41   18   24 1
    42   18   19 ar
    43   19   20 1
    44   20   21 2
    45   20   22 am
    46   22   23 1
    47   22   44 1
    48   23   24 1
    49   23   45 1
    50   23   46 1
    51   24   47 1
    52   24   48 1
@<TRIPOS>MOLECULE
CHEMBL382950
   58    62     0     0     0
SMALL
USER_CHARGES

@<TRIPOS>ATOM
      1 C1          1.9381   -5.1093   -2.1481 C.3       1 <0>        -0.0804
      2 C2          1.2020   -4.0807   -1.3287 C.2       1 <0>         0.1447
      3 C3          0.6127   -2.8943   -1.8208 C.2       1 <0>        -0.2816
      4 C4          0.0449   -2.2435   -0.7431 C.2       1 <0>         0.1002
      5 N1          0.2768   -2.9953    0.3479 N.pl3     1 <0>        -0.2959
      6 N2          0.9925   -4.1330   -0.0418 N.2       1 <0>        -0.2924
      7 C5         -0.1331   -2.6924    1.6545 C.ar      1 <0>         0.1058
      8 C6         -0.8497   -1.5300    1.9056 C.ar      1 <0>        -0.0940
      9 C7         -1.2530   -1.2323    3.1920 C.ar      1 <0>        -0.1253
     10 C8         -0.9419   -2.0942    4.2339 C.ar      1 <0>         0.1294
     11 C9         -0.2254   -3.2557    3.9835 C.ar      1 <0>        -0.1857
     12 C10         0.1726   -3.5577    2.6965 C.ar      1 <0>        -0.0668
     13 O1         -1.3388   -1.8003    5.5003 O.3       1 <0>        -0.3123
     14 C11        -0.9841   -2.7321    6.5240 C.3       1 <0>         0.0236
     15 C12         0.6061   -2.4366   -3.2218 C.2       1 <0>         0.5974
     16 O2          1.1456   -3.1053   -4.0825 O.2       1 <0>        -0.5128
     17 N3          0.0021   -1.2770   -3.5490 N.am      1 <0>        -0.6735
     18 C13         0.0785   -0.7943   -4.8595 C.ar      1 <0>         0.1470
     19 C14         0.1587    0.5725   -5.0942 C.ar      1 <0>        -0.1431
     20 C15         0.2340    1.0459   -6.3892 C.ar      1 <0>        -0.0993
     21 C16         0.2295    0.1608   -7.4520 C.ar      1 <0>        -0.1174
     22 C17         0.1497   -1.2002   -7.2218 C.ar      1 <0>        -0.0596
     23 C18         0.0800   -1.6805   -5.9286 C.ar      1 <0>        -0.1020
     24 C19         0.1447   -2.1609   -8.3829 C.3       1 <0>        -0.0174
     25 C20         1.5608   -2.5550   -8.7150 C.2       1 <0>         0.1380
     26 C21         1.8230   -3.4812   -9.8167 C.ar      1 <0>        -0.0570
     27 C22         0.7911   -4.0227  -10.5856 C.ar      1 <0>        -0.0983
     28 C23         1.0870   -4.8838  -11.6051 C.ar      1 <0>        -0.0878
     29 C24         2.4022   -5.2296  -11.8880 C.ar      1 <0>        -0.1128
     30 C25         3.4409   -4.7113  -11.1459 C.ar      1 <0>        -0.0547
     31 C26         3.1629   -3.8302  -10.1018 C.ar      1 <0>        -0.1262
     32 C27         4.2246   -3.2433   -9.2751 C.2       1 <0>         0.5282
     33 N4          3.8806   -2.3982   -8.2809 N.am      1 <0>        -0.5327
     34 N5          2.5494   -2.0678   -8.0260 N.2       1 <0>        -0.2120
     35 O3          5.3940   -3.5143   -9.4824 O.2       1 <0>        -0.5242
     36 H1          1.2334   -5.8583   -2.5092 H         1 <0>         0.0840
     37 H2          2.4174   -4.6221   -2.9972 H         1 <0>         0.0976
     38 H3          2.6959   -5.5913   -1.5305 H         1 <0>         0.0752
     39 H4         -0.4873   -1.3042   -0.7711 H         1 <0>         0.1854
     40 H5         -1.0913   -0.8587    1.0949 H         1 <0>         0.1386
     41 H6         -1.8104   -0.3281    3.3875 H         1 <0>         0.1454
     42 H7          0.0171   -3.9259    4.7950 H         1 <0>         0.1408
     43 H8          0.7258   -4.4644    2.5009 H         1 <0>         0.1439
     44 H9          0.1010   -2.8245    6.5712 H         1 <0>         0.0589
     45 H10        -1.3606   -2.3783    7.4838 H         1 <0>         0.1048
     46 H11        -1.4220   -3.7044    6.2980 H         1 <0>         0.0589
     47 H12        -0.4855   -0.7773   -2.8757 H         1 <0>         0.4064
     48 H13         0.1619    1.2641   -4.2648 H         1 <0>         0.1229
     49 H14         0.2960    2.1084   -6.5724 H         1 <0>         0.1254
     50 H15         0.2881    0.5336   -8.4639 H         1 <0>         0.1208
     51 H16         0.0225   -2.7440   -5.7492 H         1 <0>         0.1387
     52 H17        -0.4269   -3.0500   -8.1163 H         1 <0>         0.1051
     53 H18        -0.3118   -1.6817   -9.2490 H         1 <0>         0.1058
     54 H19        -0.2360   -3.7627  -10.3758 H         1 <0>         0.1414
     55 H20         0.2872   -5.3014  -12.1985 H         1 <0>         0.1358
     56 H21         2.6128   -5.9122  -12.6980 H         1 <0>         0.1365
     57 H22         4.4611   -4.9845  -11.3715 H         1 <0>         0.1428
     58 H23         4.5777   -2.0071   -7.7313 H         1 <0>         0.4359
@<TRIPOS>BOND
     1    1    2 1
     2    1   36 1
     3    1   37 1
     4    1   38 1
     5    2    6 2
     6    2    3 1
     7    3    4 2
     8    3   15 1
     9    4    5 1
    10    4   39 1
    11    5    6 1
    12    5    7 1
    13    7   12 ar
    14    7    8 ar
    15    8    9 ar
    16    8   40 1
    17    9   10 ar
    18    9   41 1
    19   10   11 ar
    20   10   13 1
    21   11   12 ar
    22   11   42 1
    23   12   43 1
    24   13   14 1
    25   14   44 1
    26   14   45 1
    27   14   46 1
    28   15   16 2
    29   15   17 am
    30   17   18 1
    31   17   47 1
    32   18   23 ar
    33   18   19 ar
    34   19   20 ar
    35   19   48 1
    36   20   21 ar
    37   20   49 1
    38   21   22 ar
    39   21   50 1
    40   22   23 ar
    41   22   24 1
    42   23   51 1
    43   24   25 1
    44   24   52 1
    45   24   53 1
    46   25   34 2
    47   25   26 1
    48   26   31 ar
    49   26   27 ar
    50   27   28 ar
    51   27   54 1
    52   28   29 ar
    53   28   55 1
    54   29   30 ar
    55   29   56 1
    56   30   31 ar
    57   30   57 1
    58   31   32 1
    59   32   33 am
    60   32   35 2
    61   33   34 1
    62   33   58 1
@<TRIPOS>MOLECULE
CHEMBL313782
   52    55     0     0     0
SMALL
USER_CHARGES

@<TRIPOS>ATOM
      1 C1         -0.0165    1.3631    0.0095 C.ar      1 <0>        -0.0779
      2 C2          1.1649    2.0935    0.0022 C.ar      1 <0>        -0.1290
      3 C3          2.3791    1.4638   -0.0123 C.ar      1 <0>        -0.0469
      4 C4          2.4269    0.0700   -0.0198 C.ar      1 <0>        -0.1498
      5 C5          1.2279   -0.6733   -0.0132 C.ar      1 <0>        -0.0012
      6 C6          0.0021   -0.0041    0.0020 C.ar      1 <0>        -0.1281
      7 C7          1.2981   -2.1430   -0.0228 C.2       1 <0>        -0.1428
      8 C8          2.4957   -2.7406   -0.0443 C.2       1 <0>         0.1205
      9 N1          3.6624   -2.0110   -0.0416 N.am      1 <0>        -0.6353
     10 C9          3.6937   -0.6686   -0.0330 C.2       1 <0>         0.5518
     11 O1          4.7568   -0.0742   -0.0366 O.2       1 <0>        -0.5147
     12 C10         2.6455   -4.2441   -0.0911 C.3       1 <0>         0.1584
     13 N2          1.3569   -4.8871    0.1785 N.pl3     1 <0>        -0.9863
     14 C11         0.1733   -4.3267   -0.4961 C.3       1 <0>         0.1107
     15 C12        -0.0062   -2.8954    0.0061 C.3       1 <0>        -0.0819
     16 S1          1.2364   -6.1874    1.1968 S.o2      1 <0>         2.6239
     17 O2          0.0806   -6.8870    0.7562 O.2       1 <0>        -0.9200
     18 O3          2.5165   -6.8027    1.1523 O.2       1 <0>        -0.9245
     19 C13         0.9448   -5.4696    2.8370 C.3       1 <0>        -0.6976
     20 C14         0.8158   -6.5917    3.8692 C.3       1 <0>         0.0061
     21 N3          0.5797   -6.0104    5.1974 N.4       1 <0>        -0.3763
     22 C15         1.7546   -5.2303    5.6044 C.3       1 <0>        -0.0162
     23 C16         1.4826   -4.5563    6.9510 C.3       1 <0>        -0.1451
     24 C17         1.1913   -5.6300    8.0034 C.3       1 <0>        -0.1405
     25 C18         0.0108   -6.4847    7.5332 C.3       1 <0>        -0.1456
     26 C19         0.3373   -7.0872    6.1651 C.3       1 <0>        -0.0121
     27 H1         -0.9632    1.8825    0.0259 H         1 <0>         0.1323
     28 H2          1.1243    3.1728    0.0076 H         1 <0>         0.1347
     29 H3          3.2922    2.0405   -0.0183 H         1 <0>         0.1405
     30 H4         -0.9229   -0.5615    0.0081 H         1 <0>         0.1347
     31 H5          2.9984   -4.5416   -1.0785 H         1 <0>         0.1101
     32 H6          3.3705   -4.5586    0.6597 H         1 <0>         0.1077
     33 H7          0.3288   -4.3237   -1.5749 H         1 <0>         0.0973
     34 H8         -0.7081   -4.9187   -0.2498 H         1 <0>         0.1096
     35 H9         -0.3823   -2.9198    1.0289 H         1 <0>         0.0770
     36 H10        -0.7293   -2.3821   -0.6277 H         1 <0>         0.0992
     37 H11         1.7811   -4.8239    3.1050 H         1 <0>         0.1546
     38 H12         0.0252   -4.8847    2.8194 H         1 <0>         0.1580
     39 H13        -0.0205   -7.2374    3.6013 H         1 <0>         0.1471
     40 H14         1.7354   -7.1766    3.8868 H         1 <0>         0.1443
     41 H15         2.6154   -5.8924    5.6972 H         1 <0>         0.1329
     42 H16         1.9625   -4.4687    4.8528 H         1 <0>         0.1290
     43 H17         2.3567   -3.9791    7.2522 H         1 <0>         0.1137
     44 H18         0.6220   -3.8938    6.8591 H         1 <0>         0.0882
     45 H19         2.0702   -6.2618    8.1324 H         1 <0>         0.0834
     46 H20         0.9415   -5.1532    8.9511 H         1 <0>         0.0960
     47 H21        -0.1670   -7.2859    8.2506 H         1 <0>         0.1152
     48 H22        -0.8803   -5.8622    7.4535 H         1 <0>         0.0887
     49 H23        -0.5010   -7.6966    5.8274 H         1 <0>         0.1345
     50 H24         1.2284   -7.7098    6.2460 H         1 <0>         0.1325
     51 H25         4.5053   -2.4909   -0.0458 H         1 <0>         0.4143
     52 H26        -0.2269   -5.4053    5.1601 H         1 <0>         0.4249
@<TRIPOS>BOND
     1    1    6 ar
     2    1    2 ar
     3    1   27 1
     4    2    3 ar
     5    2   28 1
     6    3    4 ar
     7    3   29 1
     8    4   10 1
     9    4    5 ar
    10    5    6 ar
    11    5    7 1
    12    6   30 1
    13    7   15 1
    14    7    8 2
    15    8    9 1
    16    8   12 1
    17    9   10 am
    18    9   51 1
    19   10   11 2
    20   12   13 1
    21   12   31 1
    22   12   32 1
    23   13   14 1
    24   13   16 1
    25   14   15 1
    26   14   33 1
    27   14   34 1
    28   15   35 1
    29   15   36 1
    30   16   17 2
    31   16   18 2
    32   16   19 1
    33   19   20 1
    34   19   37 1
    35   19   38 1
    36   20   21 1
    37   20   39 1
    38   20   40 1
    39   21   26 1
    40   21   22 1
    41   21   52 1
    42   22   23 1
    43   22   41 1
    44   22   42 1
    45   23   24 1
    46   23   43 1
    47   23   44 1
    48   24   25 1
    49   24   45 1
    50   24   46 1
    51   25   26 1
    52   25   47 1
    53   25   48 1
    54   26   49 1
    55   26   50 1
@<TRIPOS>MOLECULE
CHEMBL495782
   32    34     0     0     0
SMALL
USER_CHARGES

@<TRIPOS>ATOM
      1 C1         -0.0187    1.5258    0.0104 C.3       1 <0>        -0.1654
      2 C2          0.0021   -0.0041    0.0020 C.3       1 <0>         0.1564
      3 C3         -1.2935   -0.6362    0.5298 C.3       1 <0>        -0.1498
      4 C4         -0.5859   -0.5349    1.8884 C.3       1 <0>         0.0050
      5 N1          0.6975   -0.5886    1.1638 N.4       1 <0>        -0.5177
      6 C5          0.4551   -0.5734   -1.3177 C.2       1 <0>         0.2322
      7 N2         -0.0394   -0.2155   -2.5315 N.pl3     1 <0>        -0.5715
      8 H1         -0.7341    0.4402   -2.6998 H         1 <0>         0.4322
      9 C6          0.6331   -0.9604   -3.4810 C.ar      1 <0>         0.0572
     10 C7          0.5726   -1.0389   -4.8649 C.ar      1 <0>        -0.0805
     11 C8          1.4008   -1.9079   -5.5477 C.ar      1 <0>        -0.0900
     12 C9          2.2985   -2.7087   -4.8658 C.ar      1 <0>        -0.0759
     13 C10         2.3801   -2.6495   -3.4770 C.ar      1 <0>        -0.0828
     14 C11         1.5382   -1.7654   -2.7699 C.ar      1 <0>         0.0999
     15 N3          1.3825   -1.4770   -1.4627 N.2       1 <0>        -0.4574
     16 C12         3.3380   -3.5035   -2.7517 C.2       1 <0>         0.5618
     17 O1          3.4050   -3.4477   -1.5388 O.2       1 <0>        -0.5242
     18 N4          4.1396   -4.3461   -3.4328 N.am      1 <0>        -0.8478
     19 H2          1.0039    1.9031    0.0027 H         1 <0>         0.0982
     20 H3         -0.5459    1.8868   -0.8726 H         1 <0>         0.1079
     21 H4         -0.5289    1.8773    0.9072 H         1 <0>         0.1048
     22 H5         -2.1721    0.0020    0.4355 H         1 <0>         0.1388
     23 H6         -1.4624   -1.6578    0.1896 H         1 <0>         0.1297
     24 H7         -0.7576    0.4133    2.3978 H         1 <0>         0.1583
     25 H8         -0.7573   -1.3973    2.5326 H         1 <0>         0.1477
     26 H9          1.0281   -1.5281    1.0025 H         1 <0>         0.4548
     27 H10        -0.1241   -0.4189   -5.4096 H         1 <0>         0.1396
     28 H11         1.3465   -1.9630   -6.6250 H         1 <0>         0.1507
     29 H12         2.9396   -3.3838   -5.4132 H         1 <0>         0.1446
     30 H13         4.0862   -4.3906   -4.4003 H         1 <0>         0.4025
     31 H14         4.7699   -4.9080   -2.9556 H         1 <0>         0.4108
     32 H15         1.4044    0.0163    1.5544 H         1 <0>         0.4301
@<TRIPOS>BOND
     1    1    2 1
     2    1   19 1
     3    1   20 1
     4    1   21 1
     5    2    5 1
     6    2    3 1
     7    2    6 1
     8    3    4 1
     9    3   22 1
    10    3   23 1
    11    4    5 1
    12    4   24 1
    13    4   25 1
    14    5   26 1
    15    5   32 1
    16    6   15 2
    17    6    7 1
    18    7    8 1
    19    7    9 1
    20    9   14 ar
    21    9   10 ar
    22   10   11 ar
    23   10   27 1
    24   11   12 ar
    25   11   28 1
    26   12   13 ar
    27   12   29 1
    28   13   14 ar
    29   13   16 1
    30   14   15 1
    31   16   17 2
    32   16   18 am
    33   18   30 1
    34   18   31 1
@<TRIPOS>MOLECULE
CHEMBL495782__1
   32    34     0     0     0
SMALL
USER_CHARGES

@<TRIPOS>ATOM
      1 C1         -0.0187    1.5258    0.0104 C.3       1 <0>        -0.1653
      2 C2          0.0021   -0.0041    0.0020 C.3       1 <0>         0.1565
      3 C3          1.1056   -0.5958   -0.8860 C.3       1 <0>        -0.1500
      4 C4          1.9503   -0.4923    0.3917 C.3       1 <0>         0.0050
      5 N1          0.6975   -0.5886    1.1638 N.4       1 <0>        -0.5177
      6 C5         -1.3576   -0.6039   -0.2480 C.2       1 <0>         0.2323
      7 N2         -2.1854   -0.2593   -1.2687 N.pl3     1 <0>        -0.5715
      8 H1         -2.0096    0.4044   -1.9539 H         1 <0>         0.4323
      9 C6         -3.3245   -1.0317   -1.1477 C.ar      1 <0>         0.0572
     10 C7         -4.5016   -1.1339   -1.8751 C.ar      1 <0>        -0.0805
     11 C8         -5.4807   -2.0283   -1.4890 C.ar      1 <0>        -0.0901
     12 C9         -5.3031   -2.8316   -0.3776 C.ar      1 <0>        -0.0759
     13 C10        -4.1312   -2.7495    0.3699 C.ar      1 <0>        -0.0828
     14 C11        -3.1250   -1.8388   -0.0157 C.ar      1 <0>         0.1000
     15 N3         -1.9096   -1.5330    0.4798 N.2       1 <0>        -0.4574
     16 C12        -3.9434   -3.6070    1.5542 C.2       1 <0>         0.5618
     17 O1         -2.9179   -3.5311    2.2033 O.2       1 <0>        -0.5242
     18 N4         -4.9083   -4.4750    1.9175 N.am      1 <0>        -0.8478
     19 H2          1.0039    1.9031    0.0027 H         1 <0>         0.1047
     20 H3         -0.5459    1.8868   -0.8726 H         1 <0>         0.1079
     21 H4         -0.5289    1.8773    0.9072 H         1 <0>         0.0982
     22 H5          0.9150   -1.6179   -1.2133 H         1 <0>         0.1297
     23 H6          1.4317    0.0626   -1.6911 H         1 <0>         0.1388
     24 H7          2.6184   -1.3405    0.5405 H         1 <0>         0.1477
     25 H8          2.4555    0.4674    0.5017 H         1 <0>         0.1583
     26 H9          0.6827    0.0042    1.9802 H         1 <0>         0.4301
     27 H10        -4.6528   -0.5123   -2.7452 H         1 <0>         0.1396
     28 H11        -6.3941   -2.1007   -2.0607 H         1 <0>         0.1507
     29 H12        -6.0777   -3.5261   -0.0875 H         1 <0>         0.1445
     30 H13        -5.7263   -4.5355    1.3997 H         1 <0>         0.4025
     31 H14        -4.7848   -5.0392    2.6967 H         1 <0>         0.4107
     32 H15         0.4200   -1.5384    1.3614 H         1 <0>         0.4548
@<TRIPOS>BOND
     1    1    2 1
     2    1   19 1
     3    1   20 1
     4    1   21 1
     5    2    5 1
     6    2    3 1
     7    2    6 1
     8    3    4 1
     9    3   22 1
    10    3   23 1
    11    4    5 1
    12    4   24 1
    13    4   25 1
    14    5   26 1
    15    5   32 1
    16    6   15 2
    17    6    7 1
    18    7    8 1
    19    7    9 1
    20    9   14 ar
    21    9   10 ar
    22   10   11 ar
    23   10   27 1
    24   11   12 ar
    25   11   28 1
    26   12   13 ar
    27   12   29 1
    28   13   14 ar
    29   13   16 1
    30   14   15 1
    31   16   17 2
    32   16   18 am
    33   18   30 1
    34   18   31 1
@<TRIPOS>MOLECULE
CHEMBL506516
   41    43     0     0     0
SMALL
USER_CHARGES

@<TRIPOS>ATOM
      1 C1         -0.0187    1.5258    0.0104 C.3       1 <0>        -0.1797
      2 C2          0.0021   -0.0041    0.0020 C.3       1 <0>         0.0259
      3 C3         -1.4333   -0.5336    0.0129 C.3       1 <0>        -0.1792
      4 N1          0.6897   -0.4778   -1.2066 N.4       1 <0>        -0.4070
      5 C4          1.2114   -1.8518   -1.0840 C.3       1 <0>         0.0199
      6 C5          2.4438   -1.3951   -1.8773 C.3       1 <0>        -0.0179
      7 C6          2.0867   -0.0159   -1.3057 C.3       1 <0>         0.0126
      8 C7          2.2871   -1.5037   -3.3954 C.3       1 <0>        -0.1522
      9 C8          3.7472   -1.9552   -1.3690 C.2       1 <0>         0.2678
     10 N2          4.9220   -1.9367   -2.0513 N.pl3     1 <0>        -0.5828
     11 H1          5.0684   -1.5671   -2.9361 H         1 <0>         0.4280
     12 C9          5.8689   -2.5426   -1.2482 C.ar      1 <0>         0.0507
     13 C10         7.2217   -2.8158   -1.3911 C.ar      1 <0>        -0.0813
     14 C11         7.9118   -3.4533   -0.3788 C.ar      1 <0>        -0.0959
     15 C12         7.2681   -3.8267    0.7867 C.ar      1 <0>        -0.0793
     16 C13         5.9112   -3.5642    0.9562 C.ar      1 <0>        -0.0844
     17 C14         5.1969   -2.9137   -0.0721 C.ar      1 <0>         0.0980
     18 N3          3.9143   -2.5232   -0.2084 N.2       1 <0>        -0.4481
     19 C15         5.2268   -3.9625    2.1995 C.2       1 <0>         0.5611
     20 O1          4.0415   -3.7307    2.3422 O.2       1 <0>        -0.5216
     21 N4          5.9145   -4.5836    3.1781 N.am      1 <0>        -0.8501
     22 H2          1.0039    1.9031    0.0027 H         1 <0>         0.0783
     23 H3         -0.5459    1.8868   -0.8726 H         1 <0>         0.0791
     24 H4         -0.5289    1.8773    0.9072 H         1 <0>         0.1053
     25 H5          0.5293   -0.3651    0.8851 H         1 <0>         0.1399
     26 H6         -1.9605   -0.1726   -0.8702 H         1 <0>         0.0789
     27 H7         -1.4185   -1.6235    0.0069 H         1 <0>         0.0805
     28 H8         -1.9435   -0.1821    0.9097 H         1 <0>         0.1055
     29 H9          1.4382   -2.1402   -0.0576 H         1 <0>         0.1710
     30 H10         0.6084   -2.5936   -1.6075 H         1 <0>         0.1441
     31 H11         2.2255    0.7982   -2.0171 H         1 <0>         0.1441
     32 H12         2.5471    0.1857   -0.3384 H         1 <0>         0.1571
     33 H13         1.4505   -0.8848   -3.7195 H         1 <0>         0.0815
     34 H14         3.2014   -1.1617   -3.8804 H         1 <0>         0.0850
     35 H15         2.0979   -2.5420   -3.6678 H         1 <0>         0.0958
     36 H16         7.7363   -2.5294   -2.2964 H         1 <0>         0.1360
     37 H17         8.9645   -3.6627   -0.4988 H         1 <0>         0.1474
     38 H18         7.8207   -4.3250    1.5695 H         1 <0>         0.1417
     39 H19         6.8599   -4.7685    3.0643 H         1 <0>         0.4016
     40 H20         5.4641   -4.8457    3.9963 H         1 <0>         0.4093
     41 H21         0.1556   -0.3242   -2.0488 H         1 <0>         0.4335
@<TRIPOS>BOND
     1    1    2 1
     2    1   22 1
     3    1   23 1
     4    1   24 1
     5    2    3 1
     6    2    4 1
     7    2   25 1
     8    3   26 1
     9    3   27 1
    10    3   28 1
    11    4    7 1
    12    4    5 1
    13    4   41 1
    14    5    6 1
    15    5   29 1
    16    5   30 1
    17    6    7 1
    18    6    8 1
    19    6    9 1
    20    7   31 1
    21    7   32 1
    22    8   33 1
    23    8   34 1
    24    8   35 1
    25    9   18 2
    26    9   10 1
    27   10   11 1
    28   10   12 1
    29   12   17 ar
    30   12   13 ar
    31   13   14 ar
    32   13   36 1
    33   14   15 ar
    34   14   37 1
    35   15   16 ar
    36   15   38 1
    37   16   17 ar
    38   16   19 1
    39   17   18 1
    40   19   20 2
    41   19   21 am
    42   21   39 1
    43   21   40 1
@<TRIPOS>MOLECULE
CHEMBL108431
   48    52     0     0     0
SMALL
USER_CHARGES

@<TRIPOS>ATOM
      1 C1          0.0173    1.3101   -0.8843 C.ar      1 <0>        -0.0895
      2 C2          1.2017    2.0319   -0.8923 C.ar      1 <0>        -0.1118
      3 C3          2.4106    1.4003   -0.6912 C.ar      1 <0>        -0.0511
      4 C4          2.4422    0.0231   -0.4775 C.ar      1 <0>        -0.1255
      5 C5          1.2374   -0.7086   -0.4692 C.ar      1 <0>        -0.0133
      6 C6          0.0278   -0.0536   -0.6744 C.ar      1 <0>        -0.0898
      7 C7          1.2997   -2.1658   -0.2410 C.ar      1 <0>         0.1694
      8 C8          2.5486   -2.7681   -0.0415 C.ar      1 <0>         0.0972
      9 C9          2.6067   -4.1463    0.1743 C.ar      1 <0>        -0.0683
     10 C10         1.4273   -4.8635    0.1826 C.ar      1 <0>        -0.1829
     11 C11         0.2187   -4.1989   -0.0229 C.ar      1 <0>         0.3758
     12 N1          0.1877   -2.8940   -0.2247 N.ar      1 <0>        -0.4951
     13 N2         -0.9708   -4.9202   -0.0152 N.pl3     1 <0>        -0.6270
     14 C12        -2.2717   -4.2336   -0.0042 C.3       1 <0>         0.1060
     15 C13        -3.1417   -4.8235   -1.1191 C.3       1 <0>        -0.0224
     16 N3         -3.2239   -6.2804   -0.9555 N.4       1 <0>        -0.3807
     17 C14        -1.8950   -6.8793   -1.1326 C.3       1 <0>        -0.0219
     18 C15        -0.9633   -6.3913   -0.0241 C.3       1 <0>         0.1043
     19 C16        -4.1455   -6.8326   -1.9574 C.3       1 <0>         0.0266
     20 C17        -4.3291   -8.3313   -1.7102 C.3       1 <0>        -0.2127
     21 C18        -3.8496   -9.2912   -2.8009 C.3       1 <0>        -0.1686
     22 C19        -5.3475   -9.0712   -2.5798 C.3       1 <0>        -0.1485
     23 N4          3.7142   -2.0196   -0.0554 N.am      1 <0>        -0.6368
     24 C20         3.7099   -0.6900   -0.2594 C.2       1 <0>         0.5554
     25 O1          4.7596   -0.0743   -0.2633 O.2       1 <0>        -0.5067
     26 H1         -0.9217    1.8206   -1.0393 H         1 <0>         0.1362
     27 H2          1.1766    3.0988   -1.0579 H         1 <0>         0.1394
     28 H3          3.3284    1.9695   -0.6997 H         1 <0>         0.1461
     29 H4         -0.8983   -0.6093   -0.6691 H         1 <0>         0.1384
     30 H5          3.5540   -4.6407    0.3310 H         1 <0>         0.1525
     31 H6          1.4404   -5.9309    0.3467 H         1 <0>         0.1438
     32 H7         -2.7581   -4.3859    0.9593 H         1 <0>         0.0875
     33 H8         -2.1249   -3.1678   -0.1794 H         1 <0>         0.1373
     34 H9         -4.1423   -4.3946   -1.0648 H         1 <0>         0.1416
     35 H10        -2.6986   -4.5910   -2.0875 H         1 <0>         0.1324
     36 H11        -1.9770   -7.9653   -1.0882 H         1 <0>         0.1442
     37 H12        -1.4896   -6.5846   -2.1005 H         1 <0>         0.1319
     38 H13         0.0481   -6.7513   -0.2123 H         1 <0>         0.1271
     39 H14        -1.3154   -6.7651    0.9374 H         1 <0>         0.0930
     40 H15        -5.1099   -6.3307   -1.8796 H         1 <0>         0.1342
     41 H16        -3.7340   -6.6766   -2.9546 H         1 <0>         0.1286
     42 H17        -4.2238   -8.6533   -0.6741 H         1 <0>         0.1252
     43 H18        -3.4034   -8.8550   -3.6946 H         1 <0>         0.1056
     44 H19        -3.4286  -10.2449   -2.4825 H         1 <0>         0.1104
     45 H20        -5.9120   -9.8802   -2.1160 H         1 <0>         0.1126
     46 H21        -5.8867   -8.4903   -3.3281 H         1 <0>         0.1077
     47 H22         4.5619   -2.4693    0.0869 H         1 <0>         0.4188
     48 H23        -3.5677   -6.4949   -0.0314 H         1 <0>         0.4231
@<TRIPOS>BOND
     1    1    6 ar
     2    1    2 ar
     3    1   26 1
     4    2    3 ar
     5    2   27 1
     6    3    4 ar
     7    3   28 1
     8    4   24 1
     9    4    5 ar
    10    5    6 ar
    11    5    7 1
    12    6   29 1
    13    7   12 ar
    14    7    8 ar
    15    8    9 ar
    16    8   23 1
    17    9   10 ar
    18    9   30 1
    19   10   11 ar
    20   10   31 1
    21   11   12 ar
    22   11   13 1
    23   13   18 1
    24   13   14 1
    25   14   15 1
    26   14   32 1
    27   14   33 1
    28   15   16 1
    29   15   34 1
    30   15   35 1
    31   16   17 1
    32   16   19 1
    33   16   48 1
    34   17   18 1
    35   17   36 1
    36   17   37 1
    37   18   38 1
    38   18   39 1
    39   19   20 1
    40   19   40 1
    41   19   41 1
    42   20   22 1
    43   20   21 1
    44   20   42 1
    45   21   22 1
    46   21   43 1
    47   21   44 1
    48   22   45 1
    49   22   46 1
    50   23   24 am
    51   23   47 1
    52   24   25 2
@<TRIPOS>MOLECULE
CHEMBL519443
   34    36     0     0     0
SMALL
USER_CHARGES

@<TRIPOS>ATOM
      1 C1         -0.0173    1.4248    0.0099 C.3       1 <0>         0.0244
      2 O1          0.0021   -0.0041    0.0020 O.3       1 <0>        -0.3139
      3 C2          0.6054   -0.6067   -1.0550 C.ar      1 <0>         0.1490
      4 C3          1.1724    0.1646   -2.0615 C.ar      1 <0>        -0.2146
      5 C4          1.7858   -0.4437   -3.1353 C.ar      1 <0>        -0.0506
      6 C5          1.8369   -1.8360   -3.2107 C.ar      1 <0>        -0.1001
      7 C6          1.2663   -2.6078   -2.1981 C.ar      1 <0>        -0.0254
      8 C7          0.6591   -1.9930   -1.1244 C.ar      1 <0>        -0.1587
      9 C8          2.4948   -2.4932   -4.3635 C.ar      1 <0>         0.1622
     10 C9          3.1649   -1.7132   -5.3249 C.ar      1 <0>         0.0870
     11 N1          3.7522   -2.2800   -6.3509 N.ar      1 <0>        -0.4165
     12 C10         3.7168   -3.6117   -6.4884 C.ar      1 <0>         0.0594
     13 C11         4.3408   -4.2402   -7.5803 C.ar      1 <0>        -0.0473
     14 C12         4.2974   -5.5963   -7.7076 C.ar      1 <0>        -0.1163
     15 C13         3.6417   -6.3856   -6.7708 C.ar      1 <0>        -0.0537
     16 C14         3.0127   -5.8085   -5.6775 C.ar      1 <0>        -0.1092
     17 C15         3.0437   -4.3992   -5.5225 C.ar      1 <0>         0.1268
     18 N2          2.4541   -3.8107   -4.4809 N.ar      1 <0>        -0.3958
     19 C16         2.3181   -6.6516   -4.6871 C.2       1 <0>         0.5583
     20 O2          1.7687   -6.1392   -3.7309 O.2       1 <0>        -0.4999
     21 N3          2.2921   -7.9902   -4.8416 N.am      1 <0>        -0.8546
     22 H1          1.0053    1.8021    0.0021 H         1 <0>         0.0582
     23 H2         -0.5445    1.7859   -0.8732 H         1 <0>         0.0582
     24 H3         -0.5275    1.7763    0.9067 H         1 <0>         0.1026
     25 H4          1.1323    1.2423   -2.0026 H         1 <0>         0.1352
     26 H5          2.2262    0.1566   -3.9177 H         1 <0>         0.1324
     27 H6          1.3041   -3.6857   -2.2534 H         1 <0>         0.1508
     28 H7          0.2211   -2.5897   -0.3379 H         1 <0>         0.1370
     29 H8          3.1951   -0.6391   -5.2167 H         1 <0>         0.1774
     30 H9          4.8560   -3.6463   -8.3207 H         1 <0>         0.1461
     31 H10         4.7809   -6.0657   -8.5516 H         1 <0>         0.1451
     32 H11         3.6212   -7.4582   -6.8952 H         1 <0>         0.1408
     33 H12         2.7303   -8.3990   -5.6043 H         1 <0>         0.3981
     34 H13         1.8351   -8.5449   -4.1901 H         1 <0>         0.4075
@<TRIPOS>BOND
     1    1    2 1
     2    1   22 1
     3    1   23 1
     4    1   24 1
     5    2    3 1
     6    3    8 ar
     7    3    4 ar
     8    4    5 ar
     9    4   25 1
    10    5    6 ar
    11    5   26 1
    12    6    7 ar
    13    6    9 1
    14    7    8 ar
    15    7   27 1
    16    8   28 1
    17    9   18 ar
    18    9   10 ar
    19   10   11 ar
    20   10   29 1
    21   11   12 ar
    22   12   17 ar
    23   12   13 ar
    24   13   14 ar
    25   13   30 1
    26   14   15 ar
    27   14   31 1
    28   15   16 ar
    29   15   32 1
    30   16   17 ar
    31   16   19 1
    32   17   18 ar
    33   19   20 2
    34   19   21 am
    35   21   33 1
    36   21   34 1
@<TRIPOS>MOLECULE
CHEMBL568722
   35    38     0     0     0
SMALL
USER_CHARGES

@<TRIPOS>ATOM
      1 C1         -0.0167    1.3774    0.0096 C.ar      1 <0>        -0.1102
      2 C2          1.1628    2.0989    0.0022 C.ar      1 <0>        -0.0849
      3 C3          2.3902    1.4413   -0.0135 C.ar      1 <0>        -0.0887
      4 C4          2.4212    0.0292   -0.0214 C.ar      1 <0>         0.1045
      5 C5          1.2101   -0.6854   -0.0132 C.ar      1 <0>         0.0429
      6 C6          0.0021   -0.0041    0.0020 C.ar      1 <0>        -0.0795
      7 N1          1.5539   -2.0239   -0.0238 N.pl3     1 <0>        -0.5914
      8 H1          0.9420   -2.7766   -0.0221 H         1 <0>         0.4262
      9 C7          2.9201   -2.0866   -0.0377 C.2       1 <0>         0.3227
     10 N2          3.4186   -0.8720   -0.0362 N.2       1 <0>        -0.4482
     11 C8          3.7145   -3.3322   -0.0528 C.ar      1 <0>        -0.0106
     12 C9          3.0699   -4.5718   -0.0593 C.ar      1 <0>        -0.1015
     13 C10         3.8098   -5.7320   -0.0733 C.ar      1 <0>        -0.0828
     14 C11         5.2056   -5.6704   -0.0815 C.ar      1 <0>        -0.0276
     15 C12         5.8502   -4.4308   -0.0754 C.ar      1 <0>        -0.0801
     16 C13         5.1103   -3.2705   -0.0663 C.ar      1 <0>        -0.0654
     17 C14         5.9999   -6.9158   -0.0960 C.2       1 <0>         0.1135
     18 C15         7.3586   -7.0020   -0.0996 C.2       1 <0>        -0.2701
     19 C16         7.7063   -8.3606   -0.1144 C.2       1 <0>         0.0825
     20 N3          6.6084   -9.0641   -0.1196 N.2       1 <0>        -0.3142
     21 O1          5.5104   -8.1702   -0.1022 O.3       1 <0>        -0.0776
     22 C17         3.6460    2.2121   -0.0223 C.2       1 <0>         0.5578
     23 O2          4.7151    1.6326   -0.0361 O.2       1 <0>        -0.5112
     24 N4          3.6099    3.5594   -0.0152 N.am      1 <0>        -0.8548
     25 H2         -0.9622    1.8990    0.0260 H         1 <0>         0.1411
     26 H3          1.1320    3.1785    0.0083 H         1 <0>         0.1365
     27 H4         -0.9268   -0.5551    0.0079 H         1 <0>         0.1313
     28 H5          1.9910   -4.6195   -0.0531 H         1 <0>         0.1297
     29 H6          3.3116   -6.6902   -0.0777 H         1 <0>         0.1414
     30 H7          6.9292   -4.3831   -0.0813 H         1 <0>         0.1424
     31 H8          5.6085   -2.3123   -0.0653 H         1 <0>         0.1535
     32 H9          8.0476   -6.1703   -0.0928 H         1 <0>         0.1646
     33 H10         8.7111   -8.7564   -0.1211 H         1 <0>         0.2037
     34 H11         2.7572    4.0216   -0.0042 H         1 <0>         0.3987
     35 H12         4.4366    4.0668   -0.0210 H         1 <0>         0.4058
@<TRIPOS>BOND
     1    1    6 ar
     2    1    2 ar
     3    1   25 1
     4    2    3 ar
     5    2   26 1
     6    3    4 ar
     7    3   22 1
     8    4   10 1
     9    4    5 ar
    10    5    6 ar
    11    5    7 1
    12    6   27 1
    13    7    8 1
    14    7    9 1
    15    9   10 2
    16    9   11 1
    17   11   16 ar
    18   11   12 ar
    19   12   13 ar
    20   12   28 1
    21   13   14 ar
    22   13   29 1
    23   14   15 ar
    24   14   17 1
    25   15   16 ar
    26   15   30 1
    27   16   31 1
    28   17   21 1
    29   17   18 2
    30   18   19 1
    31   18   32 1
    32   19   20 2
    33   19   33 1
    34   20   21 1
    35   22   23 2
    36   22   24 am
    37   24   34 1
    38   24   35 1
@<TRIPOS>MOLECULE
CHEMBL594522
   55    59     0     0     0
SMALL
USER_CHARGES

@<TRIPOS>ATOM
      1 C1         -0.0167    1.3781    0.0096 C.ar      1 <0>        -0.1088
      2 C2          1.1709    2.0855    0.0021 C.ar      1 <0>        -0.1228
      3 C3          2.3773    1.4107   -0.0130 C.ar      1 <0>        -0.0951
      4 C4          2.3960    0.0285   -0.0201 C.ar      1 <0>        -0.0989
      5 C5          1.2084   -0.6789   -0.0117 C.ar      1 <0>        -0.0954
      6 C6          0.0021   -0.0041    0.0020 C.ar      1 <0>        -0.1232
      7 C7          3.7112   -0.7071   -0.0376 C.3       1 <0>         0.1024
      8 O1          4.1410   -0.9464    1.3041 O.3       1 <0>        -0.3087
      9 C8          5.3186   -1.6049    1.4665 C.ar      1 <0>         0.1338
     10 C9          6.0483   -2.0075    0.3574 C.ar      1 <0>        -0.2076
     11 C10         7.2453   -2.6763    0.5252 C.ar      1 <0>        -0.0616
     12 C11         7.7160   -2.9451    1.7972 C.ar      1 <0>        -0.1101
     13 C12         6.9904   -2.5454    2.9042 C.ar      1 <0>        -0.0625
     14 C13         5.7959   -1.8708    2.7418 C.ar      1 <0>        -0.1491
     15 C14         9.0219   -3.6754    1.9773 C.3       1 <0>        -0.0939
     16 C15        10.1501   -2.6784    2.0431 C.2       1 <0>         0.5208
     17 O2          9.9167   -1.4917    1.9526 O.2       1 <0>        -0.5188
     18 N1         11.4184   -3.1055    2.2025 N.am      1 <0>        -0.6086
     19 C16        11.7330   -4.5337    2.3088 C.3       1 <0>         0.1074
     20 C17        12.4448   -4.8316    3.6156 C.3       1 <0>        -0.0977
     21 C18        13.2953   -3.7007    4.1140 C.ar      1 <0>        -0.0752
     22 C19        14.0994   -3.9398    5.2271 C.ar      1 <0>        -0.0933
     23 C20        14.9091   -2.9503    5.7454 C.ar      1 <0>        -0.1214
     24 C21        14.9260   -1.6946    5.1714 C.ar      1 <0>        -0.0564
     25 C22        14.1199   -1.4404    4.0660 C.ar      1 <0>        -0.1251
     26 C23        13.3265   -2.4597    3.5264 C.ar      1 <0>        -0.0657
     27 C24        12.5387   -2.1588    2.2701 C.3       1 <0>         0.1706
     28 C25        12.0120   -0.7274    2.3127 C.3       1 <0>         0.1241
     29 N2         13.1118    0.2082    2.5534 N.am      1 <0>        -0.7311
     30 C26        14.0920   -0.1021    3.4390 C.2       1 <0>         0.5601
     31 O3         14.9515    0.7151    3.7054 O.2       1 <0>        -0.5318
     32 H1         -0.9591    1.9053    0.0259 H         1 <0>         0.1250
     33 H2          1.1563    3.1654    0.0076 H         1 <0>         0.1260
     34 H3          3.3051    1.9634   -0.0196 H         1 <0>         0.1244
     35 H4          1.2231   -1.7588   -0.0176 H         1 <0>         0.1242
     36 H5         -0.9258   -0.5567    0.0082 H         1 <0>         0.1260
     37 H6          3.5884   -1.6586   -0.5549 H         1 <0>         0.0718
     38 H7          4.4573   -0.1052   -0.5563 H         1 <0>         0.0719
     39 H8          5.6808   -1.7984   -0.6363 H         1 <0>         0.1277
     40 H9          7.8138   -2.9899   -0.3379 H         1 <0>         0.1226
     41 H10         7.3600   -2.7569    3.8967 H         1 <0>         0.1264
     42 H11         5.2316   -1.5549    3.6068 H         1 <0>         0.1308
     43 H12         8.9916   -4.2513    2.9023 H         1 <0>         0.1044
     44 H13         9.1808   -4.3488    1.1351 H         1 <0>         0.1046
     45 H14        10.8083   -5.1091    2.2646 H         1 <0>         0.0979
     46 H15        12.3748   -4.8228    1.4766 H         1 <0>         0.0780
     47 H16        11.6971   -5.0650    4.3737 H         1 <0>         0.0849
     48 H17        13.0782   -5.7074    3.4749 H         1 <0>         0.0932
     49 H18        14.0887   -4.9151    5.6909 H         1 <0>         0.1298
     50 H19        15.5320   -3.1586    6.6026 H         1 <0>         0.1340
     51 H20        15.5577   -0.9179    5.5764 H         1 <0>         0.1396
     52 H21        13.1776   -2.2879    1.3966 H         1 <0>         0.0958
     53 H22        11.5365   -0.4889    1.3613 H         1 <0>         0.1090
     54 H23        11.2783   -0.6361    3.1137 H         1 <0>         0.0862
     55 H24        13.1327    1.0563    2.0830 H         1 <0>         0.4095
@<TRIPOS>BOND
     1    1    6 ar
     2    1    2 ar
     3    1   32 1
     4    2    3 ar
     5    2   33 1
     6    3    4 ar
     7    3   34 1
     8    4    5 ar
     9    4    7 1
    10    5    6 ar
    11    5   35 1
    12    6   36 1
    13    7    8 1
    14    7   37 1
    15    7   38 1
    16    8    9 1
    17    9   14 ar
    18    9   10 ar
    19   10   11 ar
    20   10   39 1
    21   11   12 ar
    22   11   40 1
    23   12   13 ar
    24   12   15 1
    25   13   14 ar
    26   13   41 1
    27   14   42 1
    28   15   16 1
    29   15   43 1
    30   15   44 1
    31   16   17 2
    32   16   18 am
    33   18   27 1
    34   18   19 1
    35   19   20 1
    36   19   45 1
    37   19   46 1
    38   20   21 1
    39   20   47 1
    40   20   48 1
    41   21   26 ar
    42   21   22 ar
    43   22   23 ar
    44   22   49 1
    45   23   24 ar
    46   23   50 1
    47   24   25 ar
    48   24   51 1
    49   25   30 1
    50   25   26 ar
    51   26   27 1
    52   27   28 1
    53   27   52 1
    54   28   29 1
    55   28   53 1
    56   28   54 1
    57   29   30 am
    58   29   55 1
    59   30   31 2
@<TRIPOS>MOLECULE
CHEMBL594522__1
   55    59     0     0     0
SMALL
USER_CHARGES

@<TRIPOS>ATOM
      1 C1         -0.0167    1.3781    0.0096 C.ar      1 <0>        -0.1088
      2 C2          1.1709    2.0855    0.0021 C.ar      1 <0>        -0.1228
      3 C3          2.3773    1.4107   -0.0130 C.ar      1 <0>        -0.0951
      4 C4          2.3960    0.0285   -0.0201 C.ar      1 <0>        -0.0988
      5 C5          1.2084   -0.6789   -0.0117 C.ar      1 <0>        -0.0954
      6 C6          0.0021   -0.0041    0.0020 C.ar      1 <0>        -0.1232
      7 C7          3.7112   -0.7071   -0.0376 C.3       1 <0>         0.1023
      8 O1          4.1410   -0.9464    1.3041 O.3       1 <0>        -0.3086
      9 C8          5.3186   -1.6049    1.4665 C.ar      1 <0>         0.1338
     10 C9          6.0483   -2.0075    0.3574 C.ar      1 <0>        -0.2075
     11 C10         7.2453   -2.6763    0.5252 C.ar      1 <0>        -0.0617
     12 C11         7.7160   -2.9451    1.7972 C.ar      1 <0>        -0.1102
     13 C12         6.9904   -2.5454    2.9042 C.ar      1 <0>        -0.0624
     14 C13         5.7959   -1.8708    2.7418 C.ar      1 <0>        -0.1491
     15 C14         9.0219   -3.6754    1.9773 C.3       1 <0>        -0.0938
     16 C15        10.1501   -2.6784    2.0431 C.2       1 <0>         0.5210
     17 O2          9.9167   -1.4917    1.9526 O.2       1 <0>        -0.5190
     18 N1         11.4184   -3.1055    2.2025 N.am      1 <0>        -0.6079
     19 C16        11.7330   -4.5337    2.3088 C.3       1 <0>         0.1073
     20 C17        12.7050   -4.9526    1.2212 C.3       1 <0>        -0.0978
     21 C18        13.6547   -3.8678    0.8065 C.ar      1 <0>        -0.0752
     22 C19        14.6760   -4.2079   -0.0789 C.ar      1 <0>        -0.0941
     23 C20        15.5886   -3.2662   -0.5076 C.ar      1 <0>        -0.1212
     24 C21        15.4957   -1.9595   -0.0714 C.ar      1 <0>        -0.0566
     25 C22        14.4744   -1.6052    0.8047 C.ar      1 <0>        -0.1269
     26 C23        13.5727   -2.5742    1.2605 C.ar      1 <0>        -0.0673
     27 C24        12.5387   -2.1588    2.2701 C.3       1 <0>         0.1700
     28 C25        12.0496   -0.7467    1.9617 C.3       1 <0>         0.1233
     29 N2         13.1862    0.1699    1.8583 N.am      1 <0>        -0.7227
     30 C26        14.3272   -0.2115    1.2747 C.2       1 <0>         0.5596
     31 O3         15.2326    0.5844    1.1186 O.2       1 <0>        -0.5370
     32 H1         -0.9591    1.9053    0.0259 H         1 <0>         0.1251
     33 H2          1.1563    3.1654    0.0076 H         1 <0>         0.1261
     34 H3          3.3051    1.9634   -0.0196 H         1 <0>         0.1244
     35 H4          1.2231   -1.7588   -0.0176 H         1 <0>         0.1242
     36 H5         -0.9258   -0.5567    0.0082 H         1 <0>         0.1260
     37 H6          3.5884   -1.6586   -0.5549 H         1 <0>         0.0718
     38 H7          4.4573   -0.1052   -0.5563 H         1 <0>         0.0719
     39 H8          5.6808   -1.7984   -0.6363 H         1 <0>         0.1275
     40 H9          7.8138   -2.9899   -0.3379 H         1 <0>         0.1219
     41 H10         7.3600   -2.7569    3.8967 H         1 <0>         0.1272
     42 H11         5.2316   -1.5549    3.6068 H         1 <0>         0.1310
     43 H12         8.9916   -4.2513    2.9023 H         1 <0>         0.1055
     44 H13         9.1808   -4.3488    1.1351 H         1 <0>         0.1037
     45 H14        12.1784   -4.7315    3.2838 H         1 <0>         0.0784
     46 H15        10.8141   -5.1118    2.2109 H         1 <0>         0.0980
     47 H16        13.2841   -5.8031    1.5809 H         1 <0>         0.0933
     48 H17        12.1347   -5.2684    0.3477 H         1 <0>         0.0846
     49 H18        14.7544   -5.2246   -0.4347 H         1 <0>         0.1295
     50 H19        16.3785   -3.5521   -1.1864 H         1 <0>         0.1337
     51 H20        16.2084   -1.2203   -0.4063 H         1 <0>         0.1395
     52 H21        12.9773   -2.1846    3.2677 H         1 <0>         0.0956
     53 H22        11.5027   -0.7518    1.0189 H         1 <0>         0.0878
     54 H23        11.3868   -0.4117    2.7596 H         1 <0>         0.1101
     55 H24        13.1171    1.0645    2.2267 H         1 <0>         0.4091
@<TRIPOS>BOND
     1    1    6 ar
     2    1    2 ar
     3    1   32 1
     4    2    3 ar
     5    2   33 1
     6    3    4 ar
     7    3   34 1
     8    4    5 ar
     9    4    7 1
    10    5    6 ar
    11    5   35 1
    12    6   36 1
    13    7    8 1
    14    7   37 1
    15    7   38 1
    16    8    9 1
    17    9   14 ar
    18    9   10 ar
    19   10   11 ar
    20   10   39 1
    21   11   12 ar
    22   11   40 1
    23   12   13 ar
    24   12   15 1
    25   13   14 ar
    26   13   41 1
    27   14   42 1
    28   15   16 1
    29   15   43 1
    30   15   44 1
    31   16   17 2
    32   16   18 am
    33   18   27 1
    34   18   19 1
    35   19   20 1
    36   19   45 1
    37   19   46 1
    38   20   21 1
    39   20   47 1
    40   20   48 1
    41   21   26 ar
    42   21   22 ar
    43   22   23 ar
    44   22   49 1
    45   23   24 ar
    46   23   50 1
    47   24   25 ar
    48   24   51 1
    49   25   30 1
    50   25   26 ar
    51   26   27 1
    52   27   28 1
    53   27   52 1
    54   28   29 1
    55   28   53 1
    56   28   54 1
    57   29   30 am
    58   29   55 1
    59   30   31 2
@<TRIPOS>MOLECULE
CHEMBL598350
   61    64     0     0     0
SMALL
USER_CHARGES

@<TRIPOS>ATOM
      1 C1         -1.3525   -3.2566   -0.7927 C.3       1 <0>        -0.1253
      2 C2         -1.6145   -4.1148    0.4181 C.2       1 <0>        -0.0451
      3 C3         -2.2338   -5.3263    0.2970 C.2       1 <0>        -0.1533
      4 C4         -2.4471   -6.0772    1.4731 C.2       1 <0>         0.4822
      5 O1         -2.9959   -7.1662    1.4185 O.2       1 <0>        -0.5254
      6 N1         -2.0384   -5.5798    2.6560 N.am      1 <0>        -0.4487
      7 H1         -2.1860   -6.0974    3.4630 H         1 <0>         0.4407
      8 N2         -1.4580   -4.4379    2.7424 N.2       1 <0>        -0.2125
      9 C5         -1.2228   -3.6918    1.6990 C.2       1 <0>         0.0666
     10 C6         -0.5311   -2.3638    1.8694 C.3       1 <0>        -0.0122
     11 C7         -0.2172   -2.1443    3.3270 C.ar      1 <0>        -0.0830
     12 C8         -1.1400   -1.5137    4.1442 C.ar      1 <0>        -0.0495
     13 C9         -0.8617   -1.3076    5.4821 C.ar      1 <0>        -0.1504
     14 C10         0.3428   -1.7315    6.0138 C.ar      1 <0>         0.1469
     15 C11         1.2781   -2.3693    5.1931 C.ar      1 <0>        -0.1693
     16 C12         0.9855   -2.5771    3.8434 C.ar      1 <0>        -0.0495
     17 C13         2.5671   -2.8251    5.7518 C.2       1 <0>         0.5709
     18 O2          2.5844   -3.5467    6.7300 O.2       1 <0>        -0.5106
     19 N3          3.7241   -2.4409    5.1772 N.am      1 <0>        -0.6132
     20 C14         3.7257   -1.4648    4.0785 C.3       1 <0>         0.0900
     21 C15         4.6491   -0.3007    4.4585 C.3       1 <0>         0.0949
     22 N4          5.9318   -0.8501    4.9196 N.am      1 <0>        -0.5991
     23 C16         5.9303   -1.8262    6.0183 C.3       1 <0>         0.0845
     24 C17         5.0073   -2.9861    5.6421 C.3       1 <0>         0.0957
     25 C18         7.0888   -0.4659    4.3450 C.2       1 <0>         0.5193
     26 O3          7.0775    0.3400    3.4388 O.2       1 <0>        -0.5291
     27 C19         8.3966   -1.0378    4.8285 C.3       1 <0>        -0.1358
     28 C20         8.6599   -0.6128    6.2914 C.3       1 <0>        -0.1438
     29 C21        10.1835   -0.3320    6.3017 C.3       1 <0>        -0.0016
     30 N5         10.4232    0.2912    4.9749 N.4       1 <0>        -0.5163
     31 C22         9.5684   -0.4489    4.0215 C.3       1 <0>         0.0004
     32 F1          0.6149   -1.5296    7.3217 F         1 <0>        -0.1255
     33 C23        -2.6751   -5.8439   -1.0477 C.3       1 <0>        -0.1018
     34 H2         -0.3782   -3.5075   -1.2120 H         1 <0>         0.0875
     35 H3         -2.1263   -3.4356   -1.5392 H         1 <0>         0.0840
     36 H4         -1.3636   -2.2060   -0.5026 H         1 <0>         0.0807
     37 H5          0.3945   -2.3597    1.2938 H         1 <0>         0.1026
     38 H6         -1.1834   -1.5661    1.5142 H         1 <0>         0.1065
     39 H7         -2.0819   -1.1808    3.7339 H         1 <0>         0.1397
     40 H8         -1.5859   -0.8144    6.1136 H         1 <0>         0.1459
     41 H9          1.7017   -3.0724    3.2046 H         1 <0>         0.1343
     42 H10         4.0912   -1.9395    3.1679 H         1 <0>         0.0807
     43 H11         2.7139   -1.0921    3.9189 H         1 <0>         0.1085
     44 H12         4.8147    0.3340    3.5879 H         1 <0>         0.1127
     45 H13         4.1923    0.2826    5.2580 H         1 <0>         0.0827
     46 H14         6.9420   -2.1989    6.1780 H         1 <0>         0.0987
     47 H15         5.5647   -1.3515    6.9289 H         1 <0>         0.0877
     48 H16         4.8417   -3.6177    6.5148 H         1 <0>         0.1131
     49 H17         5.4662   -3.5716    4.8454 H         1 <0>         0.0774
     50 H18         8.3876   -2.1245    4.7445 H         1 <0>         0.1398
     51 H19         8.0997    0.2892    6.5378 H         1 <0>         0.1047
     52 H20         8.4121   -1.4218    6.9786 H         1 <0>         0.1281
     53 H21        10.4419    0.3594    7.1038 H         1 <0>         0.1431
     54 H22        10.7454   -1.2611    6.3975 H         1 <0>         0.1417
     55 H23        10.1596    1.2650    4.9951 H         1 <0>         0.4346
     56 H24        10.1400   -1.2522    3.5566 H         1 <0>         0.1425
     57 H25         9.1892    0.2304    3.2581 H         1 <0>         0.1550
     58 H26        -1.8682   -6.4231   -1.4968 H         1 <0>         0.0800
     59 H27        -3.5521   -6.4790   -0.9227 H         1 <0>         0.0802
     60 H28        -2.9241   -5.0041   -1.6964 H         1 <0>         0.0796
     61 H29        11.3941    0.1976    4.7168 H         1 <0>         0.4371
@<TRIPOS>BOND
     1    1    2 1
     2    1   34 1
     3    1   35 1
     4    1   36 1
     5    2    9 1
     6    2    3 2
     7    3    4 1
     8    3   33 1
     9    4    5 2
    10    4    6 am
    11    6    7 1
    12    6    8 1
    13    8    9 2
    14    9   10 1
    15   10   11 1
    16   10   37 1
    17   10   38 1
    18   11   16 ar
    19   11   12 ar
    20   12   13 ar
    21   12   39 1
    22   13   14 ar
    23   13   40 1
    24   14   15 ar
    25   14   32 1
    26   15   16 ar
    27   15   17 1
    28   16   41 1
    29   17   18 2
    30   17   19 am
    31   19   24 1
    32   19   20 1
    33   20   21 1
    34   20   42 1
    35   20   43 1
    36   21   22 1
    37   21   44 1
    38   21   45 1
    39   22   23 1
    40   22   25 am
    41   23   24 1
    42   23   46 1
    43   23   47 1
    44   24   48 1
    45   24   49 1
    46   25   26 2
    47   25   27 1
    48   27   31 1
    49   27   28 1
    50   27   50 1
    51   28   29 1
    52   28   51 1
    53   28   52 1
    54   29   30 1
    55   29   53 1
    56   29   54 1
    57   30   31 1
    58   30   55 1
    59   30   61 1
    60   31   56 1
    61   31   57 1
    62   33   58 1
    63   33   59 1
    64   33   60 1
@<TRIPOS>MOLECULE
CHEMBL598350__1
   60    63     0     0     0
SMALL
USER_CHARGES

@<TRIPOS>ATOM
      1 C1         -3.6002   -2.4698    0.0703 C.3       1 <0>        -0.1088
      2 C2         -3.6835   -1.1269   -0.6085 C.ar      1 <0>        -0.0666
      3 C3         -4.5913   -0.8993   -1.6319 C.ar      1 <0>        -0.1999
      4 C4         -4.6138    0.3651   -2.2142 C.ar      1 <0>         0.3658
      5 O1         -5.4845    0.6371   -3.2188 O.3       1 <0>        -0.6942
      6 N1         -3.7826    1.3009   -1.7836 N.ar      1 <0>        -0.3586
      7 N2         -2.9443    1.0848   -0.8360 N.ar      1 <0>        -0.2011
      8 C5         -2.8583   -0.0801   -0.2245 C.ar      1 <0>        -0.0736
      9 C6         -1.8596   -0.2762    0.8869 C.3       1 <0>        -0.0032
     10 C7         -2.5305   -0.0319    2.2140 C.ar      1 <0>        -0.0682
     11 C8         -2.6428    1.2585    2.7033 C.ar      1 <0>        -0.0497
     12 C9         -3.2563    1.4931    3.9193 C.ar      1 <0>        -0.1524
     13 C10        -3.7633    0.4378    4.6559 C.ar      1 <0>         0.1326
     14 C11        -3.6530   -0.8672    4.1663 C.ar      1 <0>        -0.1760
     15 C12        -3.0356   -1.0934    2.9342 C.ar      1 <0>        -0.0652
     16 C13        -4.1910   -2.0004    4.9460 C.2       1 <0>         0.5760
     17 O2         -5.3479   -1.9867    5.3190 O.2       1 <0>        -0.5142
     18 N3         -3.3992   -3.0496    5.2439 N.am      1 <0>        -0.6142
     19 C14        -1.9665   -3.0218    4.9178 C.3       1 <0>         0.0888
     20 C15        -1.1670   -3.2912    6.1986 C.3       1 <0>         0.0954
     21 N4         -1.7209   -4.4834    6.8558 N.am      1 <0>        -0.5968
     22 C16        -3.1536   -4.5111    7.1819 C.3       1 <0>         0.0850
     23 C17        -3.9519   -4.2394    5.9062 C.3       1 <0>         0.0957
     24 C18        -0.9291   -5.5326    7.1538 C.2       1 <0>         0.5177
     25 O3          0.2518   -5.4983    6.8794 O.2       1 <0>        -0.5313
     26 C19        -1.5111   -6.7483    7.8278 C.3       1 <0>        -0.1356
     27 C20        -2.0292   -6.3836    9.2379 C.3       1 <0>        -0.1437
     28 C21        -1.6275   -7.6175   10.0845 C.3       1 <0>        -0.0014
     29 N5         -0.3053   -7.9978    9.5247 N.4       1 <0>        -0.5161
     30 C22        -0.4158   -7.8050    8.0625 C.3       1 <0>         0.0004
     31 F1         -4.3626    0.6673    5.8448 F         1 <0>        -0.1320
     32 C23        -5.5241   -1.9868   -2.0993 C.3       1 <0>        -0.0807
     33 H1         -4.2172   -2.4616    0.9688 H         1 <0>         0.0613
     34 H2         -3.9580   -3.2433   -0.6092 H         1 <0>         0.0652
     35 H3         -2.5650   -2.6758    0.3424 H         1 <0>         0.0611
     36 H4         -1.4768   -1.2962    0.8556 H         1 <0>         0.0768
     37 H5         -1.0348    0.4254    0.7622 H         1 <0>         0.0870
     38 H6         -2.2486    2.0859    2.1320 H         1 <0>         0.1459
     39 H7         -3.3397    2.5022    4.2952 H         1 <0>         0.1430
     40 H8         -2.9502   -2.0984    2.5482 H         1 <0>         0.1360
     41 H9         -1.7444   -3.7920    4.1791 H         1 <0>         0.0809
     42 H10        -1.7008   -2.0424    4.5199 H         1 <0>         0.1120
     43 H11        -0.1208   -3.4650    5.9471 H         1 <0>         0.1121
     44 H12        -1.2476   -2.4342    6.8673 H         1 <0>         0.0826
     45 H13        -3.4193   -5.4905    7.5798 H         1 <0>         0.0964
     46 H14        -3.3756   -3.7409    7.9206 H         1 <0>         0.0869
     47 H15        -4.9971   -4.0640    6.1609 H         1 <0>         0.1122
     48 H16        -3.8745   -5.0983    5.2395 H         1 <0>         0.0763
     49 H17        -2.3165   -7.1659    7.2235 H         1 <0>         0.1399
     50 H18        -1.5372   -5.4845    9.6090 H         1 <0>         0.1047
     51 H19        -3.1118   -6.2569    9.2303 H         1 <0>         0.1283
     52 H20        -1.5369   -7.3490   11.1370 H         1 <0>         0.1419
     53 H21        -2.3476   -8.4252    9.9530 H         1 <0>         0.1409
     54 H22         0.4164   -7.4012    9.9008 H         1 <0>         0.4341
     55 H23        -0.6967   -8.7435    7.5844 H         1 <0>         0.1420
     56 H24         0.5339   -7.4508    7.6618 H         1 <0>         0.1554
     57 H25        -6.4487   -1.9447   -1.5236 H         1 <0>         0.0522
     58 H26        -5.7476   -1.8441   -3.1566 H         1 <0>         0.0670
     59 H27        -5.0506   -2.9580   -1.9559 H         1 <0>         0.0482
     60 H28        -0.1037   -8.9641    9.7340 H         1 <0>         0.4358
@<TRIPOS>BOND
     1    1    2 1
     2    1   33 1
     3    1   34 1
     4    1   35 1
     5    2    8 ar
     6    2    3 ar
     7    3    4 ar
     8    3   32 1
     9    4    5 1
    10    4    6 ar
    11    6    7 ar
    12    7    8 ar
    13    8    9 1
    14    9   10 1
    15    9   36 1
    16    9   37 1
    17   10   15 ar
    18   10   11 ar
    19   11   12 ar
    20   11   38 1
    21   12   13 ar
    22   12   39 1
    23   13   14 ar
    24   13   31 1
    25   14   15 ar
    26   14   16 1
    27   15   40 1
    28   16   17 2
    29   16   18 am
    30   18   23 1
    31   18   19 1
    32   19   20 1
    33   19   41 1
    34   19   42 1
    35   20   21 1
    36   20   43 1
    37   20   44 1
    38   21   22 1
    39   21   24 am
    40   22   23 1
    41   22   45 1
    42   22   46 1
    43   23   47 1
    44   23   48 1
    45   24   25 2
    46   24   26 1
    47   26   30 1
    48   26   27 1
    49   26   49 1
    50   27   28 1
    51   27   50 1
    52   27   51 1
    53   28   29 1
    54   28   52 1
    55   28   53 1
    56   29   30 1
    57   29   54 1
    58   29   60 1
    59   30   55 1
    60   30   56 1
    61   32   57 1
    62   32   58 1
    63   32   59 1
@<TRIPOS>MOLECULE
CHEMBL598350__2
   61    64     0     0     0
SMALL
USER_CHARGES

@<TRIPOS>ATOM
      1 C1         -1.3525   -3.2566   -0.7927 C.3       1 <0>        -0.1252
      2 C2         -1.6145   -4.1148    0.4181 C.2       1 <0>        -0.0452
      3 C3         -2.2338   -5.3263    0.2970 C.2       1 <0>        -0.1534
      4 C4         -2.4471   -6.0772    1.4731 C.2       1 <0>         0.4822
      5 O1         -2.9959   -7.1662    1.4185 O.2       1 <0>        -0.5254
      6 N1         -2.0384   -5.5798    2.6560 N.am      1 <0>        -0.4488
      7 H1         -2.1860   -6.0974    3.4630 H         1 <0>         0.4407
      8 N2         -1.4580   -4.4379    2.7424 N.2       1 <0>        -0.2123
      9 C5         -1.2228   -3.6918    1.6990 C.2       1 <0>         0.0666
     10 C6         -0.5311   -2.3638    1.8694 C.3       1 <0>        -0.0120
     11 C7         -0.2172   -2.1443    3.3270 C.ar      1 <0>        -0.0835
     12 C8         -1.1400   -1.5137    4.1442 C.ar      1 <0>        -0.0493
     13 C9         -0.8617   -1.3076    5.4821 C.ar      1 <0>        -0.1502
     14 C10         0.3428   -1.7315    6.0138 C.ar      1 <0>         0.1475
     15 C11         1.2781   -2.3693    5.1931 C.ar      1 <0>        -0.1697
     16 C12         0.9855   -2.5771    3.8434 C.ar      1 <0>        -0.0496
     17 C13         2.5671   -2.8251    5.7518 C.2       1 <0>         0.5712
     18 O2          2.5844   -3.5467    6.7300 O.2       1 <0>        -0.5103
     19 N3          3.7241   -2.4409    5.1772 N.am      1 <0>        -0.6131
     20 C14         3.7257   -1.4648    4.0785 C.3       1 <0>         0.0911
     21 C15         4.6491   -0.3007    4.4585 C.3       1 <0>         0.0944
     22 N4          5.9318   -0.8501    4.9196 N.am      1 <0>        -0.5997
     23 C16         5.9303   -1.8262    6.0183 C.3       1 <0>         0.0817
     24 C17         5.0073   -2.9861    5.6421 C.3       1 <0>         0.0970
     25 C18         7.0888   -0.4659    4.3450 C.2       1 <0>         0.5253
     26 O3          7.0775    0.3400    3.4388 O.2       1 <0>        -0.5263
     27 C19         8.3966   -1.0378    4.8285 C.3       1 <0>        -0.1344
     28 C20         8.4797   -2.5556    4.5181 C.3       1 <0>        -0.1428
     29 C21        10.0110   -2.7751    4.4381 C.3       1 <0>        -0.0060
     30 N5         10.5349   -1.5511    3.7954 N.4       1 <0>        -0.5133
     31 C22         9.5777   -0.4535    4.0255 C.3       1 <0>         0.0015
     32 F1          0.6149   -1.5296    7.3217 F         1 <0>        -0.1249
     33 C23        -2.6751   -5.8439   -1.0477 C.3       1 <0>        -0.1018
     34 H2         -0.3782   -3.5075   -1.2120 H         1 <0>         0.0872
     35 H3         -2.1263   -3.4356   -1.5392 H         1 <0>         0.0840
     36 H4         -1.3636   -2.2060   -0.5026 H         1 <0>         0.0809
     37 H5          0.3945   -2.3597    1.2938 H         1 <0>         0.1023
     38 H6         -1.1834   -1.5661    1.5142 H         1 <0>         0.1065
     39 H7         -2.0819   -1.1808    3.7339 H         1 <0>         0.1397
     40 H8         -1.5859   -0.8144    6.1136 H         1 <0>         0.1462
     41 H9          1.7017   -3.0724    3.2046 H         1 <0>         0.1339
     42 H10         4.0912   -1.9395    3.1679 H         1 <0>         0.0795
     43 H11         2.7139   -1.0921    3.9189 H         1 <0>         0.1086
     44 H12         4.8147    0.3340    3.5879 H         1 <0>         0.1131
     45 H13         4.1923    0.2826    5.2580 H         1 <0>         0.0834
     46 H14         6.9420   -2.1989    6.1780 H         1 <0>         0.0990
     47 H15         5.5647   -1.3515    6.9289 H         1 <0>         0.0883
     48 H16         4.8417   -3.6177    6.5148 H         1 <0>         0.1130
     49 H17         5.4662   -3.5716    4.8454 H         1 <0>         0.0748
     50 H18         8.5261   -0.8521    5.8948 H         1 <0>         0.1358
     51 H19         8.0425   -3.1437    5.3250 H         1 <0>         0.1278
     52 H20         8.0019   -2.7861    3.5659 H         1 <0>         0.1068
     53 H21        10.4309   -2.8883    5.4376 H         1 <0>         0.1401
     54 H22        10.2376   -3.6503    3.8291 H         1 <0>         0.1429
     55 H23        11.4288   -1.3122    4.1979 H         1 <0>         0.4356
     56 H24         9.2216   -0.0659    3.0711 H         1 <0>         0.1514
     57 H25        10.0564    0.3424    4.5961 H         1 <0>         0.1426
     58 H26        -1.8682   -6.4231   -1.4968 H         1 <0>         0.0798
     59 H27        -3.5521   -6.4790   -0.9227 H         1 <0>         0.0802
     60 H28        -2.9241   -5.0041   -1.6964 H         1 <0>         0.0797
     61 H29        10.6410   -1.7069    2.8041 H         1 <0>         0.4348
@<TRIPOS>BOND
     1    1    2 1
     2    1   34 1
     3    1   35 1
     4    1   36 1
     5    2    9 1
     6    2    3 2
     7    3    4 1
     8    3   33 1
     9    4    5 2
    10    4    6 am
    11    6    7 1
    12    6    8 1
    13    8    9 2
    14    9   10 1
    15   10   11 1
    16   10   37 1
    17   10   38 1
    18   11   16 ar
    19   11   12 ar
    20   12   13 ar
    21   12   39 1
    22   13   14 ar
    23   13   40 1
    24   14   15 ar
    25   14   32 1
    26   15   16 ar
    27   15   17 1
    28   16   41 1
    29   17   18 2
    30   17   19 am
    31   19   24 1
    32   19   20 1
    33   20   21 1
    34   20   42 1
    35   20   43 1
    36   21   22 1
    37   21   44 1
    38   21   45 1
    39   22   23 1
    40   22   25 am
    41   23   24 1
    42   23   46 1
    43   23   47 1
    44   24   48 1
    45   24   49 1
    46   25   26 2
    47   25   27 1
    48   27   31 1
    49   27   28 1
    50   27   50 1
    51   28   29 1
    52   28   51 1
    53   28   52 1
    54   29   30 1
    55   29   53 1
    56   29   54 1
    57   30   31 1
    58   30   55 1
    59   30   61 1
    60   31   56 1
    61   31   57 1
    62   33   58 1
    63   33   59 1
    64   33   60 1
@<TRIPOS>MOLECULE
CHEMBL598350__3
   60    63     0     0     0
SMALL
USER_CHARGES

@<TRIPOS>ATOM
      1 C1         -3.6002   -2.4698    0.0703 C.3       1 <0>        -0.1084
      2 C2         -3.6835   -1.1269   -0.6085 C.ar      1 <0>        -0.0667
      3 C3         -4.5913   -0.8993   -1.6319 C.ar      1 <0>        -0.2002
      4 C4         -4.6138    0.3651   -2.2142 C.ar      1 <0>         0.3657
      5 O1         -5.4845    0.6371   -3.2188 O.3       1 <0>        -0.6942
      6 N1         -3.7826    1.3009   -1.7836 N.ar      1 <0>        -0.3582
      7 N2         -2.9443    1.0848   -0.8360 N.ar      1 <0>        -0.2008
      8 C5         -2.8583   -0.0801   -0.2245 C.ar      1 <0>        -0.0736
      9 C6         -1.8596   -0.2762    0.8869 C.3       1 <0>        -0.0030
     10 C7         -2.5305   -0.0319    2.2140 C.ar      1 <0>        -0.0688
     11 C8         -2.6428    1.2585    2.7033 C.ar      1 <0>        -0.0494
     12 C9         -3.2563    1.4931    3.9193 C.ar      1 <0>        -0.1521
     13 C10        -3.7633    0.4378    4.6559 C.ar      1 <0>         0.1334
     14 C11        -3.6530   -0.8672    4.1663 C.ar      1 <0>        -0.1765
     15 C12        -3.0356   -1.0934    2.9342 C.ar      1 <0>        -0.0653
     16 C13        -4.1910   -2.0004    4.9460 C.2       1 <0>         0.5762
     17 O2         -5.3479   -1.9867    5.3190 O.2       1 <0>        -0.5139
     18 N3         -3.3992   -3.0496    5.2439 N.am      1 <0>        -0.6141
     19 C14        -1.9665   -3.0218    4.9178 C.3       1 <0>         0.0899
     20 C15        -1.1670   -3.2912    6.1986 C.3       1 <0>         0.0950
     21 N4         -1.7209   -4.4834    6.8558 N.am      1 <0>        -0.5974
     22 C16        -3.1536   -4.5111    7.1819 C.3       1 <0>         0.0822
     23 C17        -3.9519   -4.2394    5.9062 C.3       1 <0>         0.0971
     24 C18        -0.9291   -5.5326    7.1538 C.2       1 <0>         0.5237
     25 O3          0.2518   -5.4983    6.8794 O.2       1 <0>        -0.5287
     26 C19        -1.5111   -6.7483    7.8278 C.3       1 <0>        -0.1337
     27 C20        -2.5074   -7.4737    6.8854 C.3       1 <0>        -0.1435
     28 C21        -2.4440   -8.9258    7.4211 C.3       1 <0>        -0.0057
     29 N5         -1.0278   -9.1292    7.7939 N.4       1 <0>        -0.5131
     30 C22        -0.4208   -7.8137    8.0675 C.3       1 <0>         0.0015
     31 F1         -4.3626    0.6673    5.8448 F         1 <0>        -0.1314
     32 C23        -5.5241   -1.9868   -2.0993 C.3       1 <0>        -0.0805
     33 H1         -4.2172   -2.4616    0.9688 H         1 <0>         0.0613
     34 H2         -3.9580   -3.2433   -0.6092 H         1 <0>         0.0647
     35 H3         -2.5650   -2.6758    0.3424 H         1 <0>         0.0609
     36 H4         -1.4768   -1.2962    0.8556 H         1 <0>         0.0765
     37 H5         -1.0348    0.4254    0.7622 H         1 <0>         0.0871
     38 H6         -2.2486    2.0859    2.1320 H         1 <0>         0.1460
     39 H7         -3.3397    2.5022    4.2952 H         1 <0>         0.1432
     40 H8         -2.9502   -2.0984    2.5482 H         1 <0>         0.1355
     41 H9         -1.7444   -3.7920    4.1791 H         1 <0>         0.0797
     42 H10        -1.7008   -2.0424    4.5199 H         1 <0>         0.1122
     43 H11        -0.1208   -3.4650    5.9471 H         1 <0>         0.1125
     44 H12        -1.2476   -2.4342    6.8673 H         1 <0>         0.0834
     45 H13        -3.4193   -5.4905    7.5798 H         1 <0>         0.0966
     46 H14        -3.3756   -3.7409    7.9206 H         1 <0>         0.0875
     47 H15        -4.9971   -4.0640    6.1609 H         1 <0>         0.1120
     48 H16        -3.8745   -5.0983    5.2395 H         1 <0>         0.0736
     49 H17        -1.9940   -6.4733    8.7655 H         1 <0>         0.1348
     50 H18        -3.5118   -7.0631    6.9884 H         1 <0>         0.1286
     51 H19        -2.1715   -7.4246    5.8496 H         1 <0>         0.1081
     52 H20        -3.0860   -9.0364    8.2949 H         1 <0>         0.1392
     53 H21        -2.7364   -9.6306    6.6427 H         1 <0>         0.1426
     54 H22        -0.9736   -9.7066    8.6196 H         1 <0>         0.4340
     55 H23         0.4178   -7.6446    7.3921 H         1 <0>         0.1516
     56 H24        -0.0809   -7.7702    9.1023 H         1 <0>         0.1415
     57 H25        -6.4487   -1.9447   -1.5236 H         1 <0>         0.0521
     58 H26        -5.7476   -1.8441   -3.1566 H         1 <0>         0.0670
     59 H27        -5.0506   -2.9580   -1.9559 H         1 <0>         0.0478
     60 H28        -0.5379   -9.5779    7.0345 H         1 <0>         0.4345
@<TRIPOS>BOND
     1    1    2 1
     2    1   33 1
     3    1   34 1
     4    1   35 1
     5    2    8 ar
     6    2    3 ar
     7    3    4 ar
     8    3   32 1
     9    4    5 1
    10    4    6 ar
    11    6    7 ar
    12    7    8 ar
    13    8    9 1
    14    9   10 1
    15    9   36 1
    16    9   37 1
    17   10   15 ar
    18   10   11 ar
    19   11   12 ar
    20   11   38 1
    21   12   13 ar
    22   12   39 1
    23   13   14 ar
    24   13   31 1
    25   14   15 ar
    26   14   16 1
    27   15   40 1
    28   16   17 2
    29   16   18 am
    30   18   23 1
    31   18   19 1
    32   19   20 1
    33   19   41 1
    34   19   42 1
    35   20   21 1
    36   20   43 1
    37   20   44 1
    38   21   22 1
    39   21   24 am
    40   22   23 1
    41   22   45 1
    42   22   46 1
    43   23   47 1
    44   23   48 1
    45   24   25 2
    46   24   26 1
    47   26   30 1
    48   26   27 1
    49   26   49 1
    50   27   28 1
    51   27   50 1
    52   27   51 1
    53   28   29 1
    54   28   52 1
    55   28   53 1
    56   29   30 1
    57   29   54 1
    58   29   60 1
    59   30   55 1
    60   30   56 1
    61   32   57 1
    62   32   58 1
    63   32   59 1
@<TRIPOS>MOLECULE
CHEMBL420964
   63    67     0     0     0
SMALL
USER_CHARGES

@<TRIPOS>ATOM
      1 C1         -0.0165    1.3631    0.0095 C.ar      1 <0>        -0.0785
      2 C2          1.1649    2.0935    0.0022 C.ar      1 <0>        -0.1304
      3 C3          2.3791    1.4638   -0.0123 C.ar      1 <0>        -0.0484
      4 C4          2.4269    0.0700   -0.0198 C.ar      1 <0>        -0.1507
      5 C5          1.2279   -0.6733   -0.0132 C.ar      1 <0>         0.0006
      6 C6          0.0021   -0.0041    0.0020 C.ar      1 <0>        -0.1250
      7 C7          1.2981   -2.1430   -0.0228 C.2       1 <0>        -0.1332
      8 C8          2.4957   -2.7406   -0.0443 C.2       1 <0>         0.1129
      9 N1          3.6624   -2.0110   -0.0416 N.am      1 <0>        -0.6329
     10 C9          3.6937   -0.6686   -0.0330 C.2       1 <0>         0.5535
     11 O1          4.7568   -0.0742   -0.0366 O.2       1 <0>        -0.5219
     12 C10         2.6455   -4.2441   -0.0911 C.3       1 <0>         0.1483
     13 N2          1.3569   -4.8871    0.1785 N.am      1 <0>        -0.6100
     14 C11         0.1733   -4.3267   -0.4961 C.3       1 <0>         0.1083
     15 C12        -0.0062   -2.8954    0.0061 C.3       1 <0>        -0.0813
     16 C13         1.2588   -5.9454    1.0073 C.2       1 <0>         0.5238
     17 O2          0.1786   -6.4574    1.2117 O.2       1 <0>        -0.5279
     18 C14         2.4914   -6.4925    1.6799 C.3       1 <0>        -0.1406
     19 C15         2.1061   -7.6832    2.5600 C.3       1 <0>         0.0706
     20 N3          3.3076   -8.2165    3.2157 N.3       1 <0>        -0.5418
     21 C16         4.2345   -8.7887    2.2309 C.3       1 <0>         0.0499
     22 C17         5.5323   -9.2009    2.9293 C.3       1 <0>        -0.1357
     23 C18         5.2158  -10.2299    4.0180 C.3       1 <0>         0.0277
     24 C19         4.2115   -9.6261    5.0036 C.3       1 <0>        -0.1352
     25 C20         2.9520   -9.2016    4.2451 C.3       1 <0>         0.0575
     26 N4          6.4499  -10.5858    4.7309 N.4       1 <0>        -0.3919
     27 C21         6.1749  -11.6477    5.7324 C.3       1 <0>        -0.0059
     28 C22         7.5678  -12.2850    5.9649 C.3       1 <0>        -0.1455
     29 C23         8.1992  -12.2602    4.5540 C.3       1 <0>        -0.1449
     30 C24         7.4337  -11.1640    3.7900 C.3       1 <0>        -0.0088
     31 H1         -0.9632    1.8825    0.0259 H         1 <0>         0.1322
     32 H2          1.1243    3.1728    0.0076 H         1 <0>         0.1337
     33 H3          3.2922    2.0405   -0.0183 H         1 <0>         0.1395
     34 H4         -0.9229   -0.5615    0.0081 H         1 <0>         0.1357
     35 H5          2.9984   -4.5416   -1.0785 H         1 <0>         0.0966
     36 H6          3.3705   -4.5586    0.6597 H         1 <0>         0.1019
     37 H7          0.3288   -4.3237   -1.5749 H         1 <0>         0.0815
     38 H8         -0.7081   -4.9187   -0.2498 H         1 <0>         0.1062
     39 H9         -0.3823   -2.9198    1.0289 H         1 <0>         0.0840
     40 H10        -0.7293   -2.3821   -0.6277 H         1 <0>         0.0942
     41 H11         3.2052   -6.8164    0.9225 H         1 <0>         0.0947
     42 H12         2.9436   -5.7160    2.2969 H         1 <0>         0.1058
     43 H13         1.3923   -7.3593    3.3175 H         1 <0>         0.0923
     44 H14         1.6539   -8.4597    1.9431 H         1 <0>         0.0524
     45 H15         3.7778   -9.6633    1.7677 H         1 <0>         0.0480
     46 H16         4.4546   -8.0454    1.4647 H         1 <0>         0.0970
     47 H17         6.2140   -9.6398    2.2008 H         1 <0>         0.0914
     48 H18         5.9967   -8.3243    3.3811 H         1 <0>         0.0954
     49 H19         4.7871  -11.1224    3.5622 H         1 <0>         0.1329
     50 H20         3.9496  -10.3688    5.7572 H         1 <0>         0.0922
     51 H21         4.6551   -8.7562    5.4880 H         1 <0>         0.0955
     52 H22         2.2406   -8.7581    4.9418 H         1 <0>         0.0990
     53 H23         2.5013  -10.0743    3.7724 H         1 <0>         0.0484
     54 H24         5.7907  -11.2151    6.6562 H         1 <0>         0.1353
     55 H25         5.4774  -12.3831    5.3316 H         1 <0>         0.1323
     56 H26         8.1549  -11.6857    6.6608 H         1 <0>         0.0982
     57 H27         7.4682  -13.3090    6.3250 H         1 <0>         0.1164
     58 H28         9.2578  -12.0082    4.6176 H         1 <0>         0.1051
     59 H29         8.0680  -13.2249    4.0638 H         1 <0>         0.1031
     60 H30         6.9177  -11.5991    2.9342 H         1 <0>         0.1286
     61 H31         8.1264  -10.3915    3.4559 H         1 <0>         0.1314
     62 H32         4.5053   -2.4909   -0.0458 H         1 <0>         0.4107
     63 H33         6.8380   -9.7717    5.1833 H         1 <0>         0.4255
@<TRIPOS>BOND
     1    1    6 ar
     2    1    2 ar
     3    1   31 1
     4    2    3 ar
     5    2   32 1
     6    3    4 ar
     7    3   33 1
     8    4   10 1
     9    4    5 ar
    10    5    6 ar
    11    5    7 1
    12    6   34 1
    13    7   15 1
    14    7    8 2
    15    8    9 1
    16    8   12 1
    17    9   10 am
    18    9   62 1
    19   10   11 2
    20   12   13 1
    21   12   35 1
    22   12   36 1
    23   13   14 1
    24   13   16 am
    25   14   15 1
    26   14   37 1
    27   14   38 1
    28   15   39 1
    29   15   40 1
    30   16   17 2
    31   16   18 1
    32   18   19 1
    33   18   41 1
    34   18   42 1
    35   19   20 1
    36   19   43 1
    37   19   44 1
    38   20   25 1
    39   20   21 1
    40   21   22 1
    41   21   45 1
    42   21   46 1
    43   22   23 1
    44   22   47 1
    45   22   48 1
    46   23   24 1
    47   23   26 1
    48   23   49 1
    49   24   25 1
    50   24   50 1
    51   24   51 1
    52   25   52 1
    53   25   53 1
    54   26   30 1
    55   26   27 1
    56   26   63 1
    57   27   28 1
    58   27   54 1
    59   27   55 1
    60   28   29 1
    61   28   56 1
    62   28   57 1
    63   29   30 1
    64   29   58 1
    65   29   59 1
    66   30   60 1
    67   30   61 1
@<TRIPOS>MOLECULE
CHEMBL420964__1
   63    67     0     0     0
SMALL
USER_CHARGES

@<TRIPOS>ATOM
      1 C1          0.2236    1.3092   -0.4406 C.ar      1 <0>        -0.0777
      2 C2          1.4230    2.0072   -0.4985 C.ar      1 <0>        -0.1268
      3 C3          2.6203    1.3458   -0.5023 C.ar      1 <0>        -0.0485
      4 C4          2.6322   -0.0477   -0.4472 C.ar      1 <0>        -0.1485
      5 C5          1.4149   -0.7582   -0.3892 C.ar      1 <0>        -0.0040
      6 C6          0.2070   -0.0569   -0.3863 C.ar      1 <0>        -0.1242
      7 C7          1.4473   -2.2282   -0.3330 C.2       1 <0>        -0.1284
      8 C8          2.6287   -2.8574   -0.3451 C.2       1 <0>         0.1064
      9 N1          3.8136   -2.1593   -0.3928 N.am      1 <0>        -0.6345
     10 C9          3.8794   -0.8192   -0.4456 C.2       1 <0>         0.5535
     11 O1          4.9571   -0.2538   -0.4918 O.2       1 <0>        -0.5167
     12 C10         2.7392   -4.3649   -0.3257 C.3       1 <0>         0.1462
     13 N2          1.4390   -4.9610   -0.0082 N.am      1 <0>        -0.6015
     14 C11         0.2595   -4.4006   -0.6900 C.3       1 <0>         0.1084
     15 C12         0.1248   -2.9440   -0.2507 C.3       1 <0>        -0.0827
     16 C13         1.3271   -5.9780    0.8691 C.2       1 <0>         0.5303
     17 O2          0.2374   -6.4517    1.1124 O.2       1 <0>        -0.5217
     18 C14         2.5558   -6.5265    1.5476 C.3       1 <0>        -0.1777
     19 C15         2.1542   -7.6658    2.4865 C.3       1 <0>         0.0066
     20 N3          3.3520   -8.2005    3.1479 N.4       1 <0>        -0.3839
     21 C16         4.2344   -8.8064    2.1436 C.3       1 <0>        -0.0103
     22 C17         5.5202   -9.2927    2.8157 C.3       1 <0>        -0.1409
     23 C18         5.1696  -10.3329    3.8835 C.3       1 <0>         0.0628
     24 C19         4.1904   -9.7126    4.8843 C.3       1 <0>        -0.1418
     25 C20         2.9539   -9.2108    4.1355 C.3       1 <0>        -0.0021
     26 N4          6.3918  -10.7479    4.5850 N.3       1 <0>        -0.5107
     27 C21         6.0909  -11.7714    5.6185 C.3       1 <0>         0.0312
     28 C22         7.4640  -12.4479    5.8578 C.3       1 <0>        -0.1261
     29 C23         8.0831  -12.4840    4.4417 C.3       1 <0>        -0.1357
     30 C24         7.3474  -11.3849    3.6530 C.3       1 <0>         0.0339
     31 H1         -0.7092    1.8535   -0.4338 H         1 <0>         0.1335
     32 H2          1.4101    3.0863   -0.5415 H         1 <0>         0.1353
     33 H3          3.5476    1.8974   -0.5480 H         1 <0>         0.1407
     34 H4         -0.7318   -0.5890   -0.3412 H         1 <0>         0.1358
     35 H5          3.0685   -4.7157   -1.3038 H         1 <0>         0.1022
     36 H6          3.4677   -4.6642    0.4277 H         1 <0>         0.0985
     37 H7          0.3978   -4.4503   -1.7701 H         1 <0>         0.0872
     38 H8         -0.6328   -4.9576   -0.4042 H         1 <0>         0.1094
     39 H9         -0.2355   -2.9124    0.7775 H         1 <0>         0.0853
     40 H10        -0.5949   -2.4408   -0.8965 H         1 <0>         0.0982
     41 H11         3.2489   -6.9028    0.7952 H         1 <0>         0.1186
     42 H12         3.0375   -5.7351    2.1219 H         1 <0>         0.1190
     43 H13         1.4611   -7.2895    3.2388 H         1 <0>         0.1420
     44 H14         1.6725   -8.4572    1.9122 H         1 <0>         0.1402
     45 H15         3.7271   -9.6508    1.6769 H         1 <0>         0.1305
     46 H16         4.4804   -8.0658    1.3826 H         1 <0>         0.1321
     47 H17         6.1732   -9.7438    2.0686 H         1 <0>         0.1115
     48 H18         6.0284   -8.4489    3.2825 H         1 <0>         0.0990
     49 H19         4.7074  -11.1993    3.4105 H         1 <0>         0.0599
     50 H20         3.8929  -10.4639    5.6159 H         1 <0>         0.1125
     51 H21         4.6710   -8.8775    5.3940 H         1 <0>         0.0991
     52 H22         2.2545   -8.7687    4.8452 H         1 <0>         0.1359
     53 H23         2.4739  -10.0465    3.6265 H         1 <0>         0.1298
     54 H24         5.7296  -11.3003    6.5326 H         1 <0>         0.0870
     55 H25         5.3658  -12.4942    5.2445 H         1 <0>         0.0495
     56 H26         8.0768  -11.8491    6.5316 H         1 <0>         0.0792
     57 H27         7.3339  -13.4574    6.2477 H         1 <0>         0.0780
     58 H28         9.1500  -12.2656    4.4896 H         1 <0>         0.0783
     59 H29         7.9157  -13.4572    3.9803 H         1 <0>         0.0712
     60 H30         6.8096  -11.8266    2.8141 H         1 <0>         0.0475
     61 H31         8.0622  -10.6456    3.2914 H         1 <0>         0.0843
     62 H32         3.8408   -7.4507    3.6136 H         1 <0>         0.4236
     63 H33         4.6438   -2.6610   -0.3876 H         1 <0>         0.4105
@<TRIPOS>BOND
     1    1    6 ar
     2    1    2 ar
     3    1   31 1
     4    2    3 ar
     5    2   32 1
     6    3    4 ar
     7    3   33 1
     8    4   10 1
     9    4    5 ar
    10    5    6 ar
    11    5    7 1
    12    6   34 1
    13    7   15 1
    14    7    8 2
    15    8    9 1
    16    8   12 1
    17    9   10 am
    18    9   63 1
    19   10   11 2
    20   12   13 1
    21   12   35 1
    22   12   36 1
    23   13   14 1
    24   13   16 am
    25   14   15 1
    26   14   37 1
    27   14   38 1
    28   15   39 1
    29   15   40 1
    30   16   17 2
    31   16   18 1
    32   18   19 1
    33   18   41 1
    34   18   42 1
    35   19   20 1
    36   19   43 1
    37   19   44 1
    38   20   25 1
    39   20   21 1
    40   20   62 1
    41   21   22 1
    42   21   45 1
    43   21   46 1
    44   22   23 1
    45   22   47 1
    46   22   48 1
    47   23   24 1
    48   23   26 1
    49   23   49 1
    50   24   25 1
    51   24   50 1
    52   24   51 1
    53   25   52 1
    54   25   53 1
    55   26   30 1
    56   26   27 1
    57   27   28 1
    58   27   54 1
    59   27   55 1
    60   28   29 1
    61   28   56 1
    62   28   57 1
    63   29   30 1
    64   29   58 1
    65   29   59 1
    66   30   60 1
    67   30   61 1
@<TRIPOS>MOLECULE
CHEMBL593592
   40    43     0     0     0
SMALL
USER_CHARGES

@<TRIPOS>ATOM
      1 C1         -0.0167    1.3821    0.0096 C.ar      1 <0>        -0.0748
      2 C2          1.1937    2.0586    0.0017 C.ar      1 <0>        -0.1726
      3 C3          2.3701    1.3338   -0.0134 C.ar      1 <0>         0.1051
      4 N1          2.3500    0.0151   -0.0207 N.ar      1 <0>        -0.4582
      5 C4          1.2181   -0.6611   -0.0136 C.ar      1 <0>         0.1363
      6 C5          0.0021   -0.0041    0.0020 C.ar      1 <0>        -0.1659
      7 C6          1.2505   -2.1677   -0.0230 C.3       1 <0>        -0.0892
      8 C7          2.0645   -2.6453   -1.1979 C.2       1 <0>         0.5278
      9 O1          2.5686   -1.8414   -1.9532 O.2       1 <0>        -0.5095
     10 N2          2.2322   -3.9658   -1.4093 N.am      1 <0>        -0.6096
     11 C8          1.6303   -4.9619   -0.5174 C.3       1 <0>         0.1079
     12 C9          2.6963   -5.8603    0.0824 C.3       1 <0>        -0.0978
     13 C10         3.8800   -6.0778   -0.8133 C.ar      1 <0>        -0.0748
     14 C11         4.8365   -7.0057   -0.4050 C.ar      1 <0>        -0.0934
     15 C12         5.9534   -7.2610   -1.1736 C.ar      1 <0>        -0.1216
     16 C13         6.1475   -6.5868   -2.3628 C.ar      1 <0>        -0.0566
     17 C14         5.2048   -5.6505   -2.7763 C.ar      1 <0>        -0.1250
     18 C15         4.0581   -5.4218   -2.0067 C.ar      1 <0>        -0.0652
     19 C16         3.0196   -4.4619   -2.5449 C.3       1 <0>         0.1722
     20 C17         3.7020   -3.2976   -3.2568 C.3       1 <0>         0.1237
     21 N3          4.6217   -3.7999   -4.2788 N.am      1 <0>        -0.7309
     22 C18         5.3897   -4.8908   -4.0308 C.2       1 <0>         0.5604
     23 O2          6.2184   -5.2486   -4.8448 O.2       1 <0>        -0.5324
     24 H1         -0.9518    1.9222    0.0259 H         1 <0>         0.1355
     25 H2          1.2167    3.1384    0.0069 H         1 <0>         0.1355
     26 H3          3.3170    1.8532   -0.0197 H         1 <0>         0.1559
     27 H4         -0.9217   -0.5635    0.0082 H         1 <0>         0.1343
     28 H5          1.7018   -2.5272    0.9018 H         1 <0>         0.1143
     29 H6          0.2340   -2.5525   -0.1048 H         1 <0>         0.1117
     30 H7          1.0989   -4.4505    0.2851 H         1 <0>         0.0965
     31 H8          0.9249   -5.5705   -1.0832 H         1 <0>         0.0784
     32 H9          3.0428   -5.4144    1.0147 H         1 <0>         0.0850
     33 H10         2.2487   -6.8281    0.3085 H         1 <0>         0.0931
     34 H11         4.7010   -7.5334    0.5275 H         1 <0>         0.1297
     35 H12         6.6781   -7.9909   -0.8442 H         1 <0>         0.1339
     36 H13         7.0219   -6.7837   -2.9653 H         1 <0>         0.1395
     37 H14         2.3640   -4.9837   -3.2421 H         1 <0>         0.0956
     38 H15         2.9462   -2.6695   -3.7283 H         1 <0>         0.1077
     39 H16         4.2582   -2.7057   -2.5298 H         1 <0>         0.0882
     40 H17         4.6867   -3.3440   -5.1326 H         1 <0>         0.4092
@<TRIPOS>BOND
     1    1    6 ar
     2    1    2 ar
     3    1   24 1
     4    2    3 ar
     5    2   25 1
     6    3    4 ar
     7    3   26 1
     8    4    5 ar
     9    5    6 ar
    10    5    7 1
    11    6   27 1
    12    7    8 1
    13    7   28 1
    14    7   29 1
    15    8    9 2
    16    8   10 am
    17   10   19 1
    18   10   11 1
    19   11   12 1
    20   11   30 1
    21   11   31 1
    22   12   13 1
    23   12   32 1
    24   12   33 1
    25   13   18 ar
    26   13   14 ar
    27   14   15 ar
    28   14   34 1
    29   15   16 ar
    30   15   35 1
    31   16   17 ar
    32   16   36 1
    33   17   22 1
    34   17   18 ar
    35   18   19 1
    36   19   20 1
    37   19   37 1
    38   20   21 1
    39   20   38 1
    40   20   39 1
    41   21   22 am
    42   21   40 1
    43   22   23 2
@<TRIPOS>MOLECULE
CHEMBL593592__1
   40    43     0     0     0
SMALL
USER_CHARGES

@<TRIPOS>ATOM
      1 C1         -0.0167    1.3821    0.0096 C.ar      1 <0>        -0.0747
      2 C2          1.1937    2.0586    0.0017 C.ar      1 <0>        -0.1726
      3 C3          2.3701    1.3338   -0.0134 C.ar      1 <0>         0.1051
      4 N1          2.3500    0.0151   -0.0207 N.ar      1 <0>        -0.4583
      5 C4          1.2181   -0.6611   -0.0136 C.ar      1 <0>         0.1364
      6 C5          0.0021   -0.0041    0.0020 C.ar      1 <0>        -0.1659
      7 C6          1.2505   -2.1677   -0.0230 C.3       1 <0>        -0.0890
      8 C7          2.0645   -2.6453   -1.1979 C.2       1 <0>         0.5281
      9 O1          2.5686   -1.8414   -1.9532 O.2       1 <0>        -0.5097
     10 N2          2.2322   -3.9658   -1.4093 N.am      1 <0>        -0.6088
     11 C8          1.6303   -4.9619   -0.5174 C.3       1 <0>         0.1075
     12 C9          0.7143   -5.8923   -1.2909 C.3       1 <0>        -0.0976
     13 C10         1.1421   -6.1220   -2.7104 C.ar      1 <0>        -0.0754
     14 C11         0.4443   -7.0766   -3.4483 C.ar      1 <0>        -0.0941
     15 C12         0.7773   -7.3446   -4.7601 C.ar      1 <0>        -0.1214
     16 C13         1.8077   -6.6569   -5.3698 C.ar      1 <0>        -0.0566
     17 C14         2.5053   -5.6941   -4.6468 C.ar      1 <0>        -0.1268
     18 C15         2.1824   -5.4521   -3.3064 C.ar      1 <0>        -0.0670
     19 C16         3.0196   -4.4619   -2.5449 C.3       1 <0>         0.1717
     20 C17         3.4105   -3.3026   -3.4567 C.3       1 <0>         0.1233
     21 N3          4.0444   -3.8099   -4.6747 N.am      1 <0>        -0.7225
     22 C18         3.5981   -4.9198   -5.2722 C.2       1 <0>         0.5596
     23 O2          4.0771   -5.2832   -6.3286 O.2       1 <0>        -0.5374
     24 H1         -0.9518    1.9222    0.0259 H         1 <0>         0.1355
     25 H2          1.2167    3.1384    0.0069 H         1 <0>         0.1355
     26 H3          3.3170    1.8532   -0.0197 H         1 <0>         0.1562
     27 H4         -0.9217   -0.5635    0.0082 H         1 <0>         0.1340
     28 H5          1.7018   -2.5272    0.9018 H         1 <0>         0.1155
     29 H6          0.2340   -2.5525   -0.1048 H         1 <0>         0.1108
     30 H7          2.4209   -5.5463   -0.0466 H         1 <0>         0.0788
     31 H8          1.0545   -4.4512    0.2544 H         1 <0>         0.0968
     32 H9          0.6808   -6.8534   -0.7778 H         1 <0>         0.0934
     33 H10        -0.2898   -5.4682   -1.2945 H         1 <0>         0.0845
     34 H11        -0.3696   -7.6153   -2.9859 H         1 <0>         0.1295
     35 H12         0.2305   -8.0950   -5.3117 H         1 <0>         0.1336
     36 H13         2.0696   -6.8642   -6.3969 H         1 <0>         0.1394
     37 H14         3.9181   -4.9568   -2.1764 H         1 <0>         0.0959
     38 H15         2.5183   -2.7358   -3.7230 H         1 <0>         0.0866
     39 H16         4.1076   -2.6494   -2.9319 H         1 <0>         0.1113
     40 H17         4.8061   -3.3416   -5.0508 H         1 <0>         0.4090
@<TRIPOS>BOND
     1    1    6 ar
     2    1    2 ar
     3    1   24 1
     4    2    3 ar
     5    2   25 1
     6    3    4 ar
     7    3   26 1
     8    4    5 ar
     9    5    6 ar
    10    5    7 1
    11    6   27 1
    12    7    8 1
    13    7   28 1
    14    7   29 1
    15    8    9 2
    16    8   10 am
    17   10   19 1
    18   10   11 1
    19   11   12 1
    20   11   30 1
    21   11   31 1
    22   12   13 1
    23   12   32 1
    24   12   33 1
    25   13   18 ar
    26   13   14 ar
    27   14   15 ar
    28   14   34 1
    29   15   16 ar
    30   15   35 1
    31   16   17 ar
    32   16   36 1
    33   17   22 1
    34   17   18 ar
    35   18   19 1
    36   19   20 1
    37   19   37 1
    38   20   21 1
    39   20   38 1
    40   20   39 1
    41   21   22 am
    42   21   40 1
    43   22   23 2
@<TRIPOS>MOLECULE
CHEMBL593593
   40    43     0     0     0
SMALL
USER_CHARGES

@<TRIPOS>ATOM
      1 C1         -0.0166    1.3760    0.0096 C.ar      1 <0>        -0.1206
      2 C2          1.1662    2.0868    0.0021 C.ar      1 <0>        -0.0934
      3 C3          2.3967    1.4340   -0.0291 C.ar      1 <0>        -0.0756
      4 C4          2.4201    0.0605   -0.0499 C.ar      1 <0>        -0.0668
      5 C5          1.2266   -0.6678   -0.0130 C.ar      1 <0>        -0.1259
      6 C6          0.0021   -0.0041    0.0020 C.ar      1 <0>        -0.0564
      7 C7          1.2842   -2.1436    0.0500 C.2       1 <0>         0.5599
      8 O1          0.2876   -2.8040   -0.1694 O.2       1 <0>        -0.5330
      9 N1          2.4471   -2.7525    0.3513 N.am      1 <0>        -0.7270
     10 C8          3.6229   -1.9689    0.7327 C.3       1 <0>         0.1234
     11 C9          3.7168   -0.7072   -0.1204 C.3       1 <0>         0.1708
     12 N2          4.7906    0.1591    0.3818 N.am      1 <0>        -0.6059
     13 C10         4.9172    1.4937   -0.2120 C.3       1 <0>         0.1065
     14 C11         3.6334    2.2836   -0.0343 C.3       1 <0>        -0.0978
     15 C12         5.6281   -0.2566    1.3525 C.2       1 <0>         0.5240
     16 O2          5.5025   -1.3652    1.8280 O.2       1 <0>        -0.5197
     17 C13         6.7206    0.6560    1.8469 C.3       1 <0>        -0.1026
     18 C14         7.5096   -0.0427    2.9242 C.ar      1 <0>        -0.0270
     19 C15         7.1388    0.0614    4.2561 C.ar      1 <0>        -0.1584
     20 C16         7.8865   -0.5933    5.2165 C.ar      1 <0>         0.1017
     21 N3          8.9409   -1.3094    4.8781 N.ar      1 <0>        -0.4841
     22 C17         9.3227   -1.4305    3.6217 C.ar      1 <0>         0.1014
     23 C18         8.6202   -0.8094    2.6063 C.ar      1 <0>        -0.1583
     24 H1         -0.9601    1.9013    0.0260 H         1 <0>         0.1343
     25 H2          1.1376    3.1663    0.0204 H         1 <0>         0.1300
     26 H3         -0.9221   -0.5629    0.0080 H         1 <0>         0.1403
     27 H4          2.5058   -3.7200    0.3155 H         1 <0>         0.4098
     28 H5          3.5450   -1.6893    1.7833 H         1 <0>         0.0860
     29 H6          4.5201   -2.5705    0.5874 H         1 <0>         0.1097
     30 H7          3.9215   -0.9818   -1.1552 H         1 <0>         0.0971
     31 H8          5.7361    2.0259    0.2720 H         1 <0>         0.0976
     32 H9          5.1334    1.3944   -1.2758 H         1 <0>         0.0801
     33 H10         3.5550    3.0075   -0.8454 H         1 <0>         0.0944
     34 H11         3.6865    2.8268    0.9092 H         1 <0>         0.0849
     35 H12         7.3827    0.9116    1.0196 H         1 <0>         0.1115
     36 H13         6.2782    1.5658    2.2527 H         1 <0>         0.1104
     37 H14         6.2767    0.6469    4.5396 H         1 <0>         0.1324
     38 H15         7.6042   -0.5173    6.2561 H         1 <0>         0.1565
     39 H16        10.1920   -2.0253    3.3830 H         1 <0>         0.1566
     40 H17         8.9350   -0.9164    1.5788 H         1 <0>         0.1331
@<TRIPOS>BOND
     1    1    6 ar
     2    1    2 ar
     3    1   24 1
     4    2    3 ar
     5    2   25 1
     6    3   14 1
     7    3    4 ar
     8    4   11 1
     9    4    5 ar
    10    5    6 ar
    11    5    7 1
    12    6   26 1
    13    7    8 2
    14    7    9 am
    15    9   10 1
    16    9   27 1
    17   10   11 1
    18   10   28 1
    19   10   29 1
    20   11   12 1
    21   11   30 1
    22   12   13 1
    23   12   15 am
    24   13   14 1
    25   13   31 1
    26   13   32 1
    27   14   33 1
    28   14   34 1
    29   15   16 2
    30   15   17 1
    31   17   18 1
    32   17   35 1
    33   17   36 1
    34   18   23 ar
    35   18   19 ar
    36   19   20 ar
    37   19   37 1
    38   20   21 ar
    39   20   38 1
    40   21   22 ar
    41   22   23 ar
    42   22   39 1
    43   23   40 1
@<TRIPOS>MOLECULE
CHEMBL593593__1
   40    43     0     0     0
SMALL
USER_CHARGES

@<TRIPOS>ATOM
      1 C1         -0.0166    1.3760    0.0096 C.ar      1 <0>        -0.1206
      2 C2          1.1662    2.0868    0.0021 C.ar      1 <0>        -0.0934
      3 C3          2.3970    1.4338    0.0028 C.ar      1 <0>        -0.0756
      4 C4          2.4207    0.0601    0.0084 C.ar      1 <0>        -0.0668
      5 C5          1.2266   -0.6678   -0.0135 C.ar      1 <0>        -0.1258
      6 C6          0.0021   -0.0041    0.0020 C.ar      1 <0>        -0.0564
      7 C7          1.2829   -2.1428   -0.0935 C.2       1 <0>         0.5598
      8 O1          0.2903   -2.8056    0.1369 O.2       1 <0>        -0.5331
      9 N1          2.4397   -2.7483   -0.4236 N.am      1 <0>        -0.7270
     10 C8          3.6080   -1.9605   -0.8189 C.3       1 <0>         0.1234
     11 C9          3.7184   -0.7081    0.0458 C.3       1 <0>         0.1708
     12 N2          4.7825    0.1637   -0.4675 N.am      1 <0>        -0.6059
     13 C10         4.9205    1.4919    0.1382 C.3       1 <0>         0.1065
     14 C11         3.6336    2.2834   -0.0064 C.3       1 <0>        -0.0978
     15 C12         5.6018   -0.2418   -1.4578 C.2       1 <0>         0.5240
     16 O2          5.4675   -1.3456   -1.9422 O.2       1 <0>        -0.5198
     17 C13         6.6848    0.6762   -1.9632 C.3       1 <0>        -0.1026
     18 C14         7.4536   -0.0111   -3.0621 C.ar      1 <0>        -0.0270
     19 C15         8.5667   -0.7853   -2.7723 C.ar      1 <0>        -0.1582
     20 C16         9.2468   -1.4005   -3.8063 C.ar      1 <0>         0.1015
     21 N3          8.8484   -1.2573   -5.0552 N.ar      1 <0>        -0.4840
     22 C17         7.7945   -0.5288   -5.3676 C.ar      1 <0>         0.1016
     23 C18         7.0613    0.1110   -4.3863 C.ar      1 <0>        -0.1584
     24 H1         -0.9601    1.9013    0.0260 H         1 <0>         0.1343
     25 H2          1.1374    3.1664   -0.0047 H         1 <0>         0.1300
     26 H3         -0.9221   -0.5629    0.0077 H         1 <0>         0.1403
     27 H4          2.4992   -3.7162   -0.3987 H         1 <0>         0.4098
     28 H5          4.5079   -2.5635   -0.6972 H         1 <0>         0.1098
     29 H6          3.5101   -1.6696   -1.8647 H         1 <0>         0.0860
     30 H7          3.9428   -0.9938    1.0735 H         1 <0>         0.0971
     31 H8          5.1571    1.3811    1.1964 H         1 <0>         0.0801
     32 H9          5.7301    2.0293   -0.3557 H         1 <0>         0.0976
     33 H10         3.6688    2.8368   -0.9449 H         1 <0>         0.0850
     34 H11         3.5708    2.9985    0.8138 H         1 <0>         0.0944
     35 H12         6.2347    1.5899   -2.3513 H         1 <0>         0.1104
     36 H13         7.3621    0.9236   -1.1458 H         1 <0>         0.1115
     37 H14         8.8983   -0.9058   -1.7516 H         1 <0>         0.1331
     38 H15        10.1148   -2.0053   -3.5890 H         1 <0>         0.1566
     39 H16         7.4986   -0.4345   -6.4020 H         1 <0>         0.1565
     40 H17         6.1962    0.7022   -4.6480 H         1 <0>         0.1324
@<TRIPOS>BOND
     1    1    6 ar
     2    1    2 ar
     3    1   24 1
     4    2    3 ar
     5    2   25 1
     6    3   14 1
     7    3    4 ar
     8    4   11 1
     9    4    5 ar
    10    5    6 ar
    11    5    7 1
    12    6   26 1
    13    7    8 2
    14    7    9 am
    15    9   10 1
    16    9   27 1
    17   10   11 1
    18   10   28 1
    19   10   29 1
    20   11   12 1
    21   11   30 1
    22   12   13 1
    23   12   15 am
    24   13   14 1
    25   13   31 1
    26   13   32 1
    27   14   33 1
    28   14   34 1
    29   15   16 2
    30   15   17 1
    31   17   18 1
    32   17   35 1
    33   17   36 1
    34   18   23 ar
    35   18   19 ar
    36   19   20 ar
    37   19   37 1
    38   20   21 ar
    39   20   38 1
    40   21   22 ar
    41   22   23 ar
    42   22   39 1
    43   23   40 1
@<TRIPOS>MOLECULE
CHEMBL1094631
   45    48     0     0     0
SMALL
USER_CHARGES

@<TRIPOS>ATOM
      1 C1         -0.0168    1.3848    0.0097 C.ar      1 <0>        -0.1741
      2 C2          1.1177    2.1322    0.0028 C.ar      1 <0>        -0.0021
      3 C3          2.3826    1.5133   -0.0126 C.ar      1 <0>        -0.2113
      4 C4          3.6910    1.9652   -0.0227 C.2       1 <0>         0.0867
      5 N1          4.4959    0.8918   -0.0362 N.pl3     1 <0>        -0.2722
      6 N2          3.7292   -0.2794   -0.0351 N.2       1 <0>        -0.2654
      7 C5          2.4541    0.0429   -0.0212 C.ar      1 <0>         0.1399
      8 C6          1.1954   -0.7094   -0.0132 C.ar      1 <0>        -0.1263
      9 C7          0.0021   -0.0041    0.0020 C.ar      1 <0>        -0.0218
     10 C8          1.1989   -2.1810   -0.0217 C.2       1 <0>         0.5620
     11 O1          2.2538   -2.7866   -0.0355 O.2       1 <0>        -0.5242
     12 N3          0.0334   -2.8577   -0.0142 N.am      1 <0>        -0.8544
     13 C9          5.8958    0.9364   -0.0493 C.ar      1 <0>         0.1380
     14 C10         6.5530    2.1598   -0.0433 C.ar      1 <0>        -0.1296
     15 C11         7.9334    2.2005   -0.0563 C.ar      1 <0>        -0.0917
     16 C12         8.6611    1.0247   -0.0759 C.ar      1 <0>        -0.0771
     17 C13         8.0097   -0.1951   -0.0819 C.ar      1 <0>        -0.0752
     18 C14         6.6295   -0.2426   -0.0627 C.ar      1 <0>        -0.1007
     19 C15        10.1673    1.0728   -0.0911 C.3       1 <0>         0.0925
     20 N4         10.6711    1.0744    1.2888 N.3       1 <0>        -0.5323
     21 C16        10.2952    2.3132    1.9856 C.3       1 <0>         0.0131
     22 C17        10.7872    2.2472    3.4338 C.3       1 <0>         0.0629
     23 O2         12.2006    2.0286    3.4424 O.3       1 <0>        -0.3850
     24 C18        12.6019    0.8303    2.7728 C.3       1 <0>         0.0628
     25 C19        12.1283    0.8820    1.3179 C.3       1 <0>         0.0172
     26 H1         -0.9709    1.8905    0.0261 H         1 <0>         0.1323
     27 H2          1.0489    3.2100    0.0089 H         1 <0>         0.1311
     28 H3          4.0075    2.9978   -0.0204 H         1 <0>         0.1913
     29 H4         -0.9323   -0.5457    0.0084 H         1 <0>         0.1341
     30 H5         -0.8078   -2.3748   -0.0032 H         1 <0>         0.3988
     31 H6          0.0357   -3.8277   -0.0198 H         1 <0>         0.4060
     32 H7          5.9852    3.0784   -0.0287 H         1 <0>         0.1333
     33 H8          8.4451    3.1515   -0.0516 H         1 <0>         0.1327
     34 H9          8.5808   -1.1116   -0.0975 H         1 <0>         0.1366
     35 H10         6.1213   -1.1955   -0.0629 H         1 <0>         0.1447
     36 H11        10.5534    0.2001   -0.6178 H         1 <0>         0.0898
     37 H12        10.4968    1.9791   -0.5992 H         1 <0>         0.0491
     38 H13        10.7529    3.1659    1.4842 H         1 <0>         0.0444
     39 H14         9.2108    2.4225    1.9742 H         1 <0>         0.0896
     40 H15        10.5611    3.1866    3.9382 H         1 <0>         0.0988
     41 H16        10.2890    1.4268    3.9505 H         1 <0>         0.0603
     42 H17        13.6883    0.7451    2.7992 H         1 <0>         0.1000
     43 H18        12.1564   -0.0312    3.2703 H         1 <0>         0.0611
     44 H19        12.3819   -0.0535    0.8191 H         1 <0>         0.0889
     45 H20        12.6153    1.7119    0.8058 H         1 <0>         0.0453
@<TRIPOS>BOND
     1    1    9 ar
     2    1    2 ar
     3    1   26 1
     4    2    3 ar
     5    2   27 1
     6    3    7 ar
     7    3    4 2
     8    4    5 1
     9    4   28 1
    10    5    6 1
    11    5   13 1
    12    6    7 2
    13    7    8 ar
    14    8    9 ar
    15    8   10 1
    16    9   29 1
    17   10   11 2
    18   10   12 am
    19   12   30 1
    20   12   31 1
    21   13   18 ar
    22   13   14 ar
    23   14   15 ar
    24   14   32 1
    25   15   16 ar
    26   15   33 1
    27   16   17 ar
    28   16   19 1
    29   17   18 ar
    30   17   34 1
    31   18   35 1
    32   19   20 1
    33   19   36 1
    34   19   37 1
    35   20   25 1
    36   20   21 1
    37   21   22 1
    38   21   38 1
    39   21   39 1
    40   22   23 1
    41   22   40 1
    42   22   41 1
    43   23   24 1
    44   24   25 1
    45   24   42 1
    46   24   43 1
    47   25   44 1
    48   25   45 1
@<TRIPOS>MOLECULE
CHEMBL1094632
   50    53     0     0     0
SMALL
USER_CHARGES

@<TRIPOS>ATOM
      1 C1         -0.0178    1.4648    0.0101 C.3       1 <0>        -0.0458
      2 N1          0.0021   -0.0041    0.0020 N.4       1 <0>        -0.3885
      3 C2         -1.3761   -0.5122    0.0107 C.3       1 <0>        -0.0021
      4 C3         -1.3560   -2.0421   -0.0167 C.3       1 <0>         0.0248
      5 N2         -0.6244   -2.5407    1.1564 N.3       1 <0>        -0.5350
      6 C4          0.7499   -2.0201    1.1745 C.3       1 <0>         0.0178
      7 C5          0.7125   -0.4904    1.1921 C.3       1 <0>        -0.0021
      8 C6         -0.6316   -4.0091    1.1963 C.3       1 <0>         0.0982
      9 C7         -0.0938   -4.4782    2.5236 C.ar      1 <0>        -0.0991
     10 C8          1.2616   -4.7053    2.6775 C.ar      1 <0>        -0.0946
     11 C9          1.7576   -5.1352    3.8926 C.ar      1 <0>        -0.1041
     12 C10         0.8937   -5.3390    4.9607 C.ar      1 <0>         0.1572
     13 C11        -0.4668   -5.1095    4.8031 C.ar      1 <0>        -0.1318
     14 C12        -0.9559   -4.6751    3.5868 C.ar      1 <0>        -0.0682
     15 N3          1.3936   -5.7754    6.1942 N.pl3     1 <0>        -0.2839
     16 C13         0.6512   -6.0085    7.2873 C.2       1 <0>         0.0860
     17 C14         1.5026   -6.4230    8.2970 C.ar      1 <0>        -0.2052
     18 C15         1.3366   -6.8063    9.6419 C.ar      1 <0>        -0.0057
     19 C16         2.4079   -7.1711   10.3933 C.ar      1 <0>        -0.1675
     20 C17         3.7031   -7.1877    9.8915 C.ar      1 <0>        -0.0175
     21 C18         3.9735   -6.8281    8.5803 C.ar      1 <0>        -0.1280
     22 C19         2.8569   -6.4246    7.7197 C.ar      1 <0>         0.1449
     23 N4          2.7409   -6.0387    6.4677 N.2       1 <0>        -0.2665
     24 C20         5.3512   -6.8503    8.0635 C.2       1 <0>         0.5635
     25 O1          5.5735   -6.5321    6.9106 O.2       1 <0>        -0.5281
     26 N5          6.3666   -7.2232    8.8674 N.am      1 <0>        -0.8525
     27 H1          1.0047    1.8421    0.0024 H         1 <0>         0.1243
     28 H2         -0.5450    1.8259   -0.8730 H         1 <0>         0.1245
     29 H3         -0.5280    1.8163    0.9069 H         1 <0>         0.1230
     30 H4         -1.8832   -0.1716    0.9134 H         1 <0>         0.1376
     31 H5         -1.9060   -0.1400   -0.8661 H         1 <0>         0.1364
     32 H6         -2.3783   -2.4196    0.0047 H         1 <0>         0.1249
     33 H7         -0.8610   -2.3831   -0.9260 H         1 <0>         0.0620
     34 H8          1.2641   -2.3816    2.0650 H         1 <0>         0.1263
     35 H9          1.2796   -2.3607    0.2848 H         1 <0>         0.0624
     36 H10         1.7310   -0.1020    1.1912 H         1 <0>         0.1359
     37 H11         0.1947   -0.1499    2.0888 H         1 <0>         0.1374
     38 H12        -1.6519   -4.3710    1.0694 H         1 <0>         0.1000
     39 H13        -0.0057   -4.3975    0.3929 H         1 <0>         0.0592
     40 H14         1.9329   -4.5467    1.8465 H         1 <0>         0.1305
     41 H15         2.8162   -5.3131    4.0120 H         1 <0>         0.1466
     42 H16        -1.1412   -5.2670    5.6319 H         1 <0>         0.1370
     43 H17        -2.0134   -4.4929    3.4646 H         1 <0>         0.1376
     44 H18        -0.4198   -5.8933    7.3655 H         1 <0>         0.1923
     45 H19         0.3493   -6.8099   10.0797 H         1 <0>         0.1335
     46 H20         2.2463   -7.4592   11.4216 H         1 <0>         0.1356
     47 H21         4.5163   -7.4866   10.5364 H         1 <0>         0.1370
     48 H22         6.1894   -7.4769    9.7867 H         1 <0>         0.4002
     49 H23         7.2747   -7.2378    8.5267 H         1 <0>         0.4074
     50 H24         0.4748   -0.3293   -0.8280 H         1 <0>         0.4226
@<TRIPOS>BOND
     1    1    2 1
     2    1   27 1
     3    1   28 1
     4    1   29 1
     5    2    7 1
     6    2    3 1
     7    2   50 1
     8    3    4 1
     9    3   30 1
    10    3   31 1
    11    4    5 1
    12    4   32 1
    13    4   33 1
    14    5    6 1
    15    5    8 1
    16    6    7 1
    17    6   34 1
    18    6   35 1
    19    7   36 1
    20    7   37 1
    21    8    9 1
    22    8   38 1
    23    8   39 1
    24    9   14 ar
    25    9   10 ar
    26   10   11 ar
    27   10   40 1
    28   11   12 ar
    29   11   41 1
    30   12   13 ar
    31   12   15 1
    32   13   14 ar
    33   13   42 1
    34   14   43 1
    35   15   23 1
    36   15   16 1
    37   16   17 2
    38   16   44 1
    39   17   22 ar
    40   17   18 ar
    41   18   19 ar
    42   18   45 1
    43   19   20 ar
    44   19   46 1
    45   20   21 ar
    46   20   47 1
    47   21   22 ar
    48   21   24 1
    49   22   23 2
    50   24   25 2
    51   24   26 am
    52   26   48 1
    53   26   49 1
@<TRIPOS>MOLECULE
CHEMBL1094632__1
   50    53     0     0     0
SMALL
USER_CHARGES

@<TRIPOS>ATOM
      1 C1         -0.0178    1.4648    0.0101 C.3       1 <0>         0.0194
      2 N1          0.0021   -0.0041    0.0020 N.3       1 <0>        -0.5431
      3 C2         -1.3607   -0.5489   -0.0764 C.3       1 <0>         0.0242
      4 C3         -1.2932   -2.0762   -0.1426 C.3       1 <0>        -0.0025
      5 N2         -0.6107   -2.5886    1.0529 N.4       1 <0>        -0.3857
      6 C4          0.7570   -2.0553    1.1043 C.3       1 <0>        -0.0081
      7 C5          0.7065   -0.5278    1.1808 C.3       1 <0>         0.0260
      8 C6         -0.5621   -4.0557    0.9977 C.3       1 <0>         0.0473
      9 C7          0.0271   -4.5874    2.2788 C.ar      1 <0>        -0.1718
     10 C8          1.3935   -4.7710    2.3858 C.ar      1 <0>        -0.0698
     11 C9          1.9365   -5.2581    3.5586 C.ar      1 <0>        -0.1069
     12 C10         1.1088   -5.5631    4.6311 C.ar      1 <0>         0.1916
     13 C11        -0.2630   -5.3772    4.5206 C.ar      1 <0>        -0.1358
     14 C12        -0.7993   -4.8852    3.3468 C.ar      1 <0>        -0.0641
     15 N3          1.6563   -6.0577    5.8217 N.pl3     1 <0>        -0.2962
     16 C13         0.9517   -6.3889    6.9145 C.2       1 <0>         0.0847
     17 C14         1.8438   -6.8337    7.8749 C.ar      1 <0>        -0.1973
     18 C15         1.7271   -7.3083    9.1956 C.ar      1 <0>        -0.0100
     19 C16         2.8304   -7.6784    9.8965 C.ar      1 <0>        -0.1608
     20 C17         4.1118   -7.6125    9.3645 C.ar      1 <0>        -0.0148
     21 C18         4.3346   -7.1596    8.0734 C.ar      1 <0>        -0.1269
     22 C19         3.1818   -6.7457    7.2672 C.ar      1 <0>         0.1500
     23 N4          3.0191   -6.2854    6.0459 N.2       1 <0>        -0.2628
     24 C20         5.6983   -7.0951    7.5240 C.2       1 <0>         0.5634
     25 O1          5.8787   -6.6955    6.3893 O.2       1 <0>        -0.5277
     26 N5          6.7474   -7.4789    8.2781 N.am      1 <0>        -0.8511
     27 H1          1.0047    1.8421    0.0024 H         1 <0>         0.0844
     28 H2         -0.5450    1.8259   -0.8730 H         1 <0>         0.0841
     29 H3         -0.5280    1.8163    0.9069 H         1 <0>         0.0392
     30 H4         -1.9242   -0.2477    0.8067 H         1 <0>         0.0599
     31 H5         -1.8539   -0.1676   -0.9705 H         1 <0>         0.1243
     32 H6         -2.3035   -2.4830   -0.1865 H         1 <0>         0.1368
     33 H7         -0.7413   -2.3773   -1.0330 H         1 <0>         0.1390
     34 H8          1.2666   -2.4465    1.9848 H         1 <0>         0.1351
     35 H9          1.2983   -2.3564    0.2075 H         1 <0>         0.1389
     36 H10         1.7215   -0.1310    1.2040 H         1 <0>         0.1235
     37 H11         0.1771   -0.2262    2.0846 H         1 <0>         0.0595
     38 H12        -1.5711   -4.4482    0.8715 H         1 <0>         0.1400
     39 H13         0.0569   -4.3674    0.1563 H         1 <0>         0.1394
     40 H14         2.0367   -4.5336    1.5514 H         1 <0>         0.1436
     41 H15         3.0037   -5.4019    3.6413 H         1 <0>         0.1559
     42 H16        -0.9093   -5.6134    5.3530 H         1 <0>         0.1451
     43 H17        -1.8657   -4.7368    3.2616 H         1 <0>         0.1437
     44 H18        -0.1205   -6.3207    7.0250 H         1 <0>         0.1941
     45 H19         0.7523   -7.3783    9.6553 H         1 <0>         0.1356
     46 H20         2.7063   -8.0378   10.9074 H         1 <0>         0.1383
     47 H21         4.9520   -7.9202    9.9693 H         1 <0>         0.1396
     48 H22         6.6036   -7.7975    9.1829 H         1 <0>         0.4006
     49 H23         7.6463   -7.4364    7.9160 H         1 <0>         0.4088
     50 H24        -1.1152   -2.2999    1.8777 H         1 <0>         0.4195
@<TRIPOS>BOND
     1    1    2 1
     2    1   27 1
     3    1   28 1
     4    1   29 1
     5    2    7 1
     6    2    3 1
     7    3    4 1
     8    3   30 1
     9    3   31 1
    10    4    5 1
    11    4   32 1
    12    4   33 1
    13    5    6 1
    14    5    8 1
    15    5   50 1
    16    6    7 1
    17    6   34 1
    18    6   35 1
    19    7   36 1
    20    7   37 1
    21    8    9 1
    22    8   38 1
    23    8   39 1
    24    9   14 ar
    25    9   10 ar
    26   10   11 ar
    27   10   40 1
    28   11   12 ar
    29   11   41 1
    30   12   13 ar
    31   12   15 1
    32   13   14 ar
    33   13   42 1
    34   14   43 1
    35   15   23 1
    36   15   16 1
    37   16   17 2
    38   16   44 1
    39   17   22 ar
    40   17   18 ar
    41   18   19 ar
    42   18   45 1
    43   19   20 ar
    44   19   46 1
    45   20   21 ar
    46   20   47 1
    47   21   22 ar
    48   21   24 1
    49   22   23 2
    50   24   25 2
    51   24   26 am
    52   26   48 1
    53   26   49 1
@<TRIPOS>MOLECULE
CHEMBL1097627
   48    51     0     0     0
SMALL
USER_CHARGES

@<TRIPOS>ATOM
      1 C1         -0.0168    1.3848    0.0097 C.ar      1 <0>        -0.1608
      2 C2          1.1177    2.1322    0.0028 C.ar      1 <0>        -0.0100
      3 C3          2.3826    1.5133   -0.0126 C.ar      1 <0>        -0.1973
      4 C4          3.6910    1.9652   -0.0227 C.2       1 <0>         0.0845
      5 N1          4.4959    0.8918   -0.0362 N.pl3     1 <0>        -0.2959
      6 N2          3.7292   -0.2794   -0.0351 N.2       1 <0>        -0.2627
      7 C5          2.4541    0.0429   -0.0212 C.ar      1 <0>         0.1496
      8 C6          1.1954   -0.7094   -0.0132 C.ar      1 <0>        -0.1267
      9 C7          0.0021   -0.0041    0.0020 C.ar      1 <0>        -0.0150
     10 C8          1.1989   -2.1810   -0.0217 C.2       1 <0>         0.5633
     11 O1          2.2538   -2.7866   -0.0355 O.2       1 <0>        -0.5277
     12 N3          0.0334   -2.8577   -0.0142 N.am      1 <0>        -0.8511
     13 C9          5.8958    0.9364   -0.0493 C.ar      1 <0>         0.1911
     14 C10         6.5530    2.1598   -0.0433 C.ar      1 <0>        -0.1362
     15 C11         7.9334    2.2005   -0.0563 C.ar      1 <0>        -0.0682
     16 C12         8.6611    1.0247   -0.0759 C.ar      1 <0>        -0.1710
     17 C13         8.0097   -0.1951   -0.0819 C.ar      1 <0>        -0.0659
     18 C14         6.6295   -0.2426   -0.0627 C.ar      1 <0>        -0.1065
     19 C15        10.1673    1.0728   -0.0911 C.3       1 <0>         0.0459
     20 N4         10.6711    1.0744    1.2888 N.4       1 <0>        -0.3824
     21 C16        10.2417    2.3052    1.9635 C.3       1 <0>        -0.0133
     22 C17        10.6947    2.2750    3.4248 C.3       1 <0>        -0.1453
     23 C18        12.2215    2.1678    3.4781 C.3       1 <0>        -0.1390
     24 C19        12.6629    0.9200    2.7077 C.3       1 <0>        -0.1466
     25 C20        12.1370    1.0005    1.2730 C.3       1 <0>        -0.0070
     26 H1         -0.9709    1.8905    0.0261 H         1 <0>         0.1382
     27 H2          1.0489    3.2100    0.0089 H         1 <0>         0.1356
     28 H3          4.0075    2.9978   -0.0204 H         1 <0>         0.1941
     29 H4         -0.9323   -0.5457    0.0084 H         1 <0>         0.1396
     30 H5         -0.8078   -2.3748   -0.0032 H         1 <0>         0.4006
     31 H6          0.0357   -3.8277   -0.0198 H         1 <0>         0.4088
     32 H7          5.9852    3.0784   -0.0287 H         1 <0>         0.1452
     33 H8          8.4451    3.1515   -0.0516 H         1 <0>         0.1433
     34 H9          8.5808   -1.1116   -0.0975 H         1 <0>         0.1434
     35 H10         6.1213   -1.1955   -0.0629 H         1 <0>         0.1556
     36 H11        10.5534    0.2001   -0.6178 H         1 <0>         0.1393
     37 H12        10.4968    1.9791   -0.5992 H         1 <0>         0.1372
     38 H13        10.6851    3.1665    1.4639 H         1 <0>         0.1284
     39 H14         9.1552    2.3817    1.9220 H         1 <0>         0.1295
     40 H15        10.3765    3.1905    3.9235 H         1 <0>         0.1110
     41 H16        10.2517    1.4141    3.9255 H         1 <0>         0.0866
     42 H17        12.6651    3.0532    3.0229 H         1 <0>         0.0818
     43 H18        12.5453    2.0889    4.5159 H         1 <0>         0.0938
     44 H19        13.7516    0.8670    2.6939 H         1 <0>         0.1125
     45 H20        12.2607    0.0310    3.1935 H         1 <0>         0.0874
     46 H21        12.4497    0.1137    0.7216 H         1 <0>         0.1308
     47 H22        12.5399    1.8896    0.7881 H         1 <0>         0.1290
     48 H23        10.3004    0.2760    1.7821 H         1 <0>         0.4223
@<TRIPOS>BOND
     1    1    9 ar
     2    1    2 ar
     3    1   26 1
     4    2    3 ar
     5    2   27 1
     6    3    7 ar
     7    3    4 2
     8    4    5 1
     9    4   28 1
    10    5    6 1
    11    5   13 1
    12    6    7 2
    13    7    8 ar
    14    8    9 ar
    15    8   10 1
    16    9   29 1
    17   10   11 2
    18   10   12 am
    19   12   30 1
    20   12   31 1
    21   13   18 ar
    22   13   14 ar
    23   14   15 ar
    24   14   32 1
    25   15   16 ar
    26   15   33 1
    27   16   17 ar
    28   16   19 1
    29   17   18 ar
    30   17   34 1
    31   18   35 1
    32   19   20 1
    33   19   36 1
    34   19   37 1
    35   20   25 1
    36   20   21 1
    37   20   48 1
    38   21   22 1
    39   21   38 1
    40   21   39 1
    41   22   23 1
    42   22   40 1
    43   22   41 1
    44   23   24 1
    45   23   42 1
    46   23   43 1
    47   24   25 1
    48   24   44 1
    49   24   45 1
    50   25   46 1
    51   25   47 1
@<TRIPOS>MOLECULE
CHEMBL596365
   49    52     0     0     0
SMALL
USER_CHARGES

@<TRIPOS>ATOM
      1 C1         -0.9422    0.2203   -0.2226 C.3       1 <0>        -0.0454
      2 N1         -0.6409   -1.1091    0.3250 N.4       1 <0>        -0.3826
      3 C2         -1.8493   -1.6678    0.9682 C.3       1 <0>        -0.0088
      4 C3         -1.3187   -2.4476    2.1969 C.3       1 <0>        -0.1443
      5 C4         -0.1534   -1.5374    2.6665 C.3       1 <0>        -0.1326
      6 C5          0.4225   -0.9981    1.3403 C.3       1 <0>        -0.0001
      7 H1          0.7138    0.0455    1.4596 H         1 <0>         0.1703
      8 C6          1.6145   -1.8220    0.9263 C.2       1 <0>         0.5080
      9 O1          1.5891   -2.4454   -0.1139 O.2       1 <0>        -0.5050
     10 N2          2.7088   -1.8661    1.7118 N.am      1 <0>        -0.6418
     11 C7          3.7770   -2.7063    1.3772 C.ar      1 <0>         0.1139
     12 C8          4.1070   -2.9126    0.0437 C.ar      1 <0>        -0.0901
     13 C9          5.1606   -3.7406   -0.2862 C.ar      1 <0>        -0.0872
     14 C10         5.8910   -4.3677    0.7152 C.ar      1 <0>         0.1518
     15 C11         5.5610   -4.1614    2.0486 C.ar      1 <0>        -0.1142
     16 C12         4.5108   -3.3292    2.3787 C.ar      1 <0>        -0.1034
     17 N3          6.9602   -5.2087    0.3803 N.pl3     1 <0>        -0.2838
     18 C13         7.7277   -5.8671    1.2619 C.2       1 <0>         0.0852
     19 C14         8.6700   -6.5877    0.5481 C.ar      1 <0>        -0.2039
     20 C15         9.7278   -7.4521    0.8899 C.ar      1 <0>        -0.0062
     21 C16        10.4956   -8.0199   -0.0764 C.ar      1 <0>        -0.1668
     22 C17        10.2880   -7.7873   -1.4300 C.ar      1 <0>        -0.0175
     23 C18         9.2733   -6.9520   -1.8712 C.ar      1 <0>        -0.1274
     24 C19         8.4106   -6.3102   -0.8742 C.ar      1 <0>         0.1453
     25 N4          7.3824   -5.4912   -0.9241 N.2       1 <0>        -0.2655
     26 C20         9.0665   -6.7146   -3.3087 C.2       1 <0>         0.5632
     27 O2          8.1720   -5.9792   -3.6813 O.2       1 <0>        -0.5275
     28 N5          9.8681   -7.3121   -4.2125 N.am      1 <0>        -0.8525
     29 H2         -0.0454    0.6357   -0.6823 H         1 <0>         0.1231
     30 H3         -1.7286    0.1346   -0.9726 H         1 <0>         0.1304
     31 H4         -1.2763    0.8770    0.5806 H         1 <0>         0.1254
     32 H5         -2.5151   -0.8656    1.2864 H         1 <0>         0.1387
     33 H6         -2.3655   -2.3420    0.2848 H         1 <0>         0.1402
     34 H7         -2.0849   -2.5298    2.9678 H         1 <0>         0.1255
     35 H8         -0.9523   -3.4322    1.9062 H         1 <0>         0.1004
     36 H9         -0.5270   -0.7211    3.2847 H         1 <0>         0.1181
     37 H10         0.5962   -2.1178    3.2044 H         1 <0>         0.1150
     38 H11         2.7561   -1.3156    2.5090 H         1 <0>         0.4219
     39 H12         3.5389   -2.4253   -0.7348 H         1 <0>         0.1481
     40 H13         5.4170   -3.9013   -1.3229 H         1 <0>         0.1526
     41 H14         6.1287   -4.6493    2.8271 H         1 <0>         0.1445
     42 H15         4.2570   -3.1653    3.4156 H         1 <0>         0.1436
     43 H16         7.6285   -5.8395    2.3370 H         1 <0>         0.1931
     44 H17         9.9307   -7.6651    1.9291 H         1 <0>         0.1337
     45 H18        11.2992   -8.6779    0.2195 H         1 <0>         0.1358
     46 H19        10.9305   -8.2667   -2.1536 H         1 <0>         0.1372
     47 H20        10.5814   -7.8985   -3.9155 H         1 <0>         0.4001
     48 H21         9.7318   -7.1556   -5.1601 H         1 <0>         0.4075
     49 H22        -0.3392   -1.7225   -0.4171 H         1 <0>         0.4339
@<TRIPOS>BOND
     1    1    2 1
     2    1   29 1
     3    1   30 1
     4    1   31 1
     5    2    6 1
     6    2    3 1
     7    2   49 1
     8    3    4 1
     9    3   32 1
    10    3   33 1
    11    4    5 1
    12    4   34 1
    13    4   35 1
    14    5    6 1
    15    5   36 1
    16    5   37 1
    17    6    7 1
    18    6    8 1
    19    8    9 2
    20    8   10 am
    21   10   11 1
    22   10   38 1
    23   11   16 ar
    24   11   12 ar
    25   12   13 ar
    26   12   39 1
    27   13   14 ar
    28   13   40 1
    29   14   15 ar
    30   14   17 1
    31   15   16 ar
    32   15   41 1
    33   16   42 1
    34   17   25 1
    35   17   18 1
    36   18   19 2
    37   18   43 1
    38   19   24 ar
    39   19   20 ar
    40   20   21 ar
    41   20   44 1
    42   21   22 ar
    43   21   45 1
    44   22   23 ar
    45   22   46 1
    46   23   24 ar
    47   23   26 1
    48   24   25 2
    49   26   27 2
    50   26   28 am
    51   28   47 1
    52   28   48 1
@<TRIPOS>MOLECULE
CHEMBL147896
   28    30     0     0     0
SMALL
USER_CHARGES

@<TRIPOS>ATOM
      1 C1         -0.0173    1.4248    0.0099 C.3       1 <0>         0.0168
      2 O1          0.0021   -0.0041    0.0020 O.3       1 <0>        -0.2870
      3 C2          0.6043   -0.6057   -1.0532 C.2       1 <0>         0.2937
      4 C3          0.7125   -1.9395   -1.2310 C.2       1 <0>        -0.2046
      5 C4          1.4402   -2.1581   -2.4337 C.ar      1 <0>        -0.0372
      6 C5          1.9026   -3.3192   -3.0872 C.ar      1 <0>        -0.1016
      7 C6          2.4496   -3.1935   -4.3676 C.ar      1 <0>        -0.0643
      8 C7          2.6170   -1.9464   -4.9352 C.ar      1 <0>        -0.1189
      9 C8          2.2537   -0.7994   -4.2546 C.ar      1 <0>        -0.0884
     10 C9          1.6671   -0.8920   -3.0002 C.ar      1 <0>         0.0786
     11 N1          1.1906    0.0462   -2.1041 N.pl3     1 <0>        -0.6120
     12 H1          1.2617    1.0086   -2.2030 H         1 <0>         0.4187
     13 C10         1.8988   -4.6267   -2.4337 C.2       1 <0>         0.5652
     14 O2          2.7924   -5.3971   -2.7294 O.2       1 <0>        -0.5465
     15 N2          0.9937   -5.0530   -1.5332 N.am      1 <0>        -0.7152
     16 C11        -0.1572   -4.2719   -1.1528 C.3       1 <0>         0.1131
     17 C12         0.1866   -3.0306   -0.3667 C.3       1 <0>        -0.0591
     18 H2          1.0053    1.8021    0.0021 H         1 <0>         0.0577
     19 H3         -0.5445    1.7859   -0.8732 H         1 <0>         0.0582
     20 H4         -0.5275    1.7763    0.9067 H         1 <0>         0.1137
     21 H5          2.7431   -4.0767   -4.9154 H         1 <0>         0.1358
     22 H6          3.0380   -1.8656   -5.9265 H         1 <0>         0.1359
     23 H7          2.4270    0.1695   -4.6990 H         1 <0>         0.1267
     24 H8          1.1209   -5.9227   -1.1229 H         1 <0>         0.4049
     25 H9         -0.6913   -3.9758   -2.0557 H         1 <0>         0.0688
     26 H10        -0.8173   -4.8949   -0.5494 H         1 <0>         0.0896
     27 H11         0.9392   -3.2830    0.3804 H         1 <0>         0.0719
     28 H12        -0.7093   -2.6763    0.1432 H         1 <0>         0.0858
@<TRIPOS>BOND
     1    1    2 1
     2    1   18 1
     3    1   19 1
     4    1   20 1
     5    2    3 1
     6    3   11 1
     7    3    4 2
     8    4   17 1
     9    4    5 1
    10    5   10 ar
    11    5    6 ar
    12    6    7 ar
    13    6   13 1
    14    7    8 ar
    15    7   21 1
    16    8    9 ar
    17    8   22 1
    18    9   10 ar
    19    9   23 1
    20   10   11 1
    21   11   12 1
    22   13   14 2
    23   13   15 am
    24   15   16 1
    25   15   24 1
    26   16   17 1
    27   16   25 1
    28   16   26 1
    29   17   27 1
    30   17   28 1
@<TRIPOS>MOLECULE
CHEMBL344349
   47    51     0     0     0
SMALL
USER_CHARGES

@<TRIPOS>ATOM
      1 C1          0.0123    1.4284    0.0364 C.ar      1 <0>        -0.1171
      2 C2          1.2092    2.1197    0.0126 C.ar      1 <0>        -0.1125
      3 C3          2.4061    1.4286   -0.0111 C.ar      1 <0>        -0.1071
      4 C4          2.4063    0.0462   -0.0107 C.ar      1 <0>        -0.0748
      5 C5          1.2095   -0.6450    0.0140 C.ar      1 <0>        -0.1174
      6 C6          0.0124    0.0460    0.0364 C.ar      1 <0>        -0.1137
      7 C7          3.7112   -0.7071   -0.0376 C.3       1 <0>         0.0530
      8 C8          3.8699   -1.4828    1.2447 C.ar      1 <0>        -0.0745
      9 C9          3.0119   -2.5282    1.5308 C.ar      1 <0>        -0.1162
     10 C10         3.1575   -3.2398    2.7070 C.ar      1 <0>        -0.1138
     11 C11         4.1614   -2.9062    3.5968 C.ar      1 <0>        -0.1173
     12 C12         5.0200   -1.8613    3.3103 C.ar      1 <0>        -0.1126
     13 C13         4.8770   -1.1526    2.1321 C.ar      1 <0>        -0.1074
     14 C14         3.7171   -1.6600   -1.2051 C.2       1 <0>         0.1191
     15 C15         4.6054   -1.6419   -2.2083 C.2       1 <0>        -0.1679
     16 C16         4.2270   -2.7170   -3.1333 C.ar      1 <0>        -0.0692
     17 C17         4.7375   -3.1502   -4.3724 C.ar      1 <0>        -0.0901
     18 C18         4.2424   -4.3364   -4.9173 C.ar      1 <0>        -0.0753
     19 C19         3.2078   -5.0090   -4.2941 C.ar      1 <0>        -0.1089
     20 C20         2.6399   -4.5292   -3.1306 C.ar      1 <0>        -0.0991
     21 C21         3.1412   -3.3762   -2.5362 C.ar      1 <0>         0.0939
     22 N1          2.8204   -2.6748   -1.3947 N.pl3     1 <0>        -0.5876
     23 H1          2.0689   -2.8703   -0.8134 H         1 <0>         0.4120
     24 C22         5.6979   -2.3454   -5.1280 C.2       1 <0>         0.5653
     25 O1          5.6408   -2.4079   -6.3411 O.2       1 <0>        -0.5444
     26 N2          6.6391   -1.5414   -4.5981 N.am      1 <0>        -0.7153
     27 C23         6.8825   -1.4342   -3.1821 C.3       1 <0>         0.1139
     28 C24         5.7744   -0.7467   -2.4192 C.3       1 <0>        -0.0679
     29 H2         -0.9228    1.9683    0.0595 H         1 <0>         0.1245
     30 H3          1.2090    3.1997    0.0123 H         1 <0>         0.1262
     31 H4          3.3412    1.9687   -0.0304 H         1 <0>         0.1260
     32 H5          1.2096   -1.7250    0.0137 H         1 <0>         0.1096
     33 H6         -0.9226   -0.4941    0.0553 H         1 <0>         0.1238
     34 H7          4.5359   -0.0018   -0.1400 H         1 <0>         0.1142
     35 H8          2.2276   -2.7889    0.8356 H         1 <0>         0.1094
     36 H9          2.4868   -4.0561    2.9308 H         1 <0>         0.1235
     37 H10         4.2747   -3.4616    4.5161 H         1 <0>         0.1242
     38 H11         5.8040   -1.6005    4.0057 H         1 <0>         0.1260
     39 H12         5.5501   -0.3386    1.9065 H         1 <0>         0.1259
     40 H13         4.6687   -4.7295   -5.8285 H         1 <0>         0.1349
     41 H14         2.8365   -5.9268   -4.7256 H         1 <0>         0.1346
     42 H15         1.8065   -5.0494   -2.6821 H         1 <0>         0.1258
     43 H16         7.1808   -1.0075   -5.2002 H         1 <0>         0.4042
     44 H17         7.0141   -2.4369   -2.7755 H         1 <0>         0.0692
     45 H18         7.8068   -0.8771   -3.0298 H         1 <0>         0.0892
     46 H19         5.4518    0.1321   -2.9775 H         1 <0>         0.0766
     47 H20         6.1566   -0.4282   -1.4494 H         1 <0>         0.0850
@<TRIPOS>BOND
     1    1    6 ar
     2    1    2 ar
     3    1   29 1
     4    2    3 ar
     5    2   30 1
     6    3    4 ar
     7    3   31 1
     8    4    5 ar
     9    4    7 1
    10    5    6 ar
    11    5   32 1
    12    6   33 1
    13    7    8 1
    14    7   14 1
    15    7   34 1
    16    8   13 ar
    17    8    9 ar
    18    9   10 ar
    19    9   35 1
    20   10   11 ar
    21   10   36 1
    22   11   12 ar
    23   11   37 1
    24   12   13 ar
    25   12   38 1
    26   13   39 1
    27   14   22 1
    28   14   15 2
    29   15   28 1
    30   15   16 1
    31   16   21 ar
    32   16   17 ar
    33   17   18 ar
    34   17   24 1
    35   18   19 ar
    36   18   40 1
    37   19   20 ar
    38   19   41 1
    39   20   21 ar
    40   20   42 1
    41   21   22 1
    42   22   23 1
    43   24   25 2
    44   24   26 am
    45   26   27 1
    46   26   43 1
    47   27   28 1
    48   27   44 1
    49   27   45 1
    50   28   46 1
    51   28   47 1
@<TRIPOS>MOLECULE
CHEMBL421605
   47    49     0     0     0
SMALL
USER_CHARGES

@<TRIPOS>ATOM
      1 C1         -0.0169    1.3947    0.0097 C.ar      1 <0>        -0.0500
      2 C2          1.1693    2.0966    0.0022 C.ar      1 <0>        -0.1027
      3 C3          2.3782    1.4203   -0.0135 C.ar      1 <0>        -0.0585
      4 C4          2.4048    0.0353   -0.0212 C.ar      1 <0>        -0.1023
      5 C5          1.2267   -0.6801   -0.0138 C.ar      1 <0>        -0.0648
      6 C6          0.0021   -0.0041    0.0020 C.ar      1 <0>        -0.1586
      7 C7         -1.2596   -0.7604    0.0105 C.2       1 <0>         0.3950
      8 O1         -2.3195   -0.1714    0.0242 O.2       1 <0>        -0.4408
      9 C8         -1.2350   -2.2672    0.0022 C.3       1 <0>         0.0727
     10 N1         -2.6080   -2.7781    0.0131 N.am      1 <0>        -0.7243
     11 C9         -2.8325   -4.1070    0.0082 C.2       1 <0>         0.5264
     12 O2         -1.8979   -4.8799   -0.0053 O.2       1 <0>        -0.5331
     13 C10        -4.2448   -4.6326    0.0194 C.3       1 <0>        -0.1622
     14 C11        -4.2198   -6.1624    0.0109 C.3       1 <0>         0.1225
     15 N2         -5.5928   -6.6733    0.0218 N.am      1 <0>        -0.5348
     16 C12        -6.2163   -6.9101    1.2247 C.2       1 <0>         0.2011
     17 C13        -7.4772   -7.3719    1.2320 C.2       1 <0>        -0.2479
     18 C14        -8.1279   -7.6170   -0.0080 C.2       1 <0>         0.5512
     19 O3         -9.2678   -8.0452   -0.0250 O.2       1 <0>        -0.5092
     20 N3         -7.4811   -7.3743   -1.1631 N.am      1 <0>        -0.6594
     21 H1         -7.9232   -7.5398   -2.0105 H         1 <0>         0.4320
     22 C15        -6.2226   -6.8971   -1.1425 C.2       1 <0>         0.6967
     23 O4         -5.6484   -6.6704   -2.1899 O.2       1 <0>        -0.5363
     24 C16        -8.2472   -7.6375    2.4973 C.3       1 <0>        -0.0461
     25 C17        -7.3007   -7.7468    3.6914 C.3       1 <0>        -0.1241
     26 C18        -6.3741   -6.5248    3.6842 C.3       1 <0>        -0.1172
     27 C19        -5.4362   -6.6412    2.4841 C.3       1 <0>        -0.0945
     28 Br1         4.0000    2.3925   -0.0250 Br        1 <0>        -0.0344
     29 H2         -0.9586    1.9232    0.0260 H         1 <0>         0.1453
     30 H3          1.1562    3.1765    0.0081 H         1 <0>         0.1428
     31 H4          3.3510   -0.4853   -0.0334 H         1 <0>         0.1437
     32 H5          1.2489   -1.7598   -0.0205 H         1 <0>         0.1450
     33 H6         -0.7241   -2.6173   -0.8948 H         1 <0>         0.1104
     34 H7         -0.7065   -2.6268    0.8850 H         1 <0>         0.1106
     35 H8         -3.3554   -2.1600    0.0238 H         1 <0>         0.4122
     36 H9         -4.7557   -4.2826    0.9163 H         1 <0>         0.1035
     37 H10        -4.7734   -4.2730   -0.8635 H         1 <0>         0.1079
     38 H11        -3.7090   -6.5125   -0.8861 H         1 <0>         0.1146
     39 H12        -3.6913   -6.5220    0.8938 H         1 <0>         0.1089
     40 H13        -8.9489   -6.8212    2.6688 H         1 <0>         0.0781
     41 H14        -8.8012   -8.5702    2.3916 H         1 <0>         0.0836
     42 H15        -7.8768   -7.7657    4.6165 H         1 <0>         0.0782
     43 H16        -6.7080   -8.6578    3.6083 H         1 <0>         0.0697
     44 H17        -6.9674   -5.6143    3.5999 H         1 <0>         0.0737
     45 H18        -5.7912   -6.5002    4.6049 H         1 <0>         0.0815
     46 H19        -4.7353   -7.4585    2.6539 H         1 <0>         0.1020
     47 H20        -4.8808   -5.7102    2.3707 H         1 <0>         0.0919
@<TRIPOS>BOND
     1    1    6 ar
     2    1    2 ar
     3    1   29 1
     4    2    3 ar
     5    2   30 1
     6    3    4 ar
     7    3   28 1
     8    4    5 ar
     9    4   31 1
    10    5    6 ar
    11    5   32 1
    12    6    7 1
    13    7    8 2
    14    7    9 1
    15    9   10 1
    16    9   33 1
    17    9   34 1
    18   10   11 am
    19   10   35 1
    20   11   12 2
    21   11   13 1
    22   13   14 1
    23   13   36 1
    24   13   37 1
    25   14   15 1
    26   14   38 1
    27   14   39 1
    28   15   22 am
    29   15   16 1
    30   16   27 1
    31   16   17 2
    32   17   18 1
    33   17   24 1
    34   18   19 2
    35   18   20 am
    36   20   21 1
    37   20   22 am
    38   22   23 2
    39   24   25 1
    40   24   40 1
    41   24   41 1
    42   25   26 1
    43   25   42 1
    44   25   43 1
    45   26   27 1
    46   26   44 1
    47   26   45 1
    48   27   46 1
    49   27   47 1
@<TRIPOS>MOLECULE
CHEMBL46137
   27    29     0     0     0
SMALL
USER_CHARGES

@<TRIPOS>ATOM
      1 C1         -0.0168    1.3846    0.0097 C.ar      1 <0>        -0.1160
      2 C2          1.1617    2.1019    0.0023 C.ar      1 <0>        -0.0911
      3 C3          2.3777    1.4280   -0.0129 C.ar      1 <0>         0.0006
      4 C4          3.6639    2.1506   -0.0207 C.ar      1 <0>        -0.0797
      5 C5          3.6981    3.5441   -0.0129 C.ar      1 <0>        -0.0924
      6 C6          4.9104    4.1998   -0.0200 C.ar      1 <0>        -0.0543
      7 C7          6.0937    3.4780   -0.0348 C.ar      1 <0>        -0.6096
      8 C8          6.0740    2.0997   -0.0432 C.ar      1 <0>        -0.0647
      9 C9          4.8604    1.4187   -0.0358 C.ar      1 <0>         0.1486
     10 N1          4.8446    0.0336   -0.0433 N.am      1 <0>        -0.6333
     11 C10         3.6992   -0.6714   -0.0369 C.2       1 <0>         0.5591
     12 C11         2.4004    0.0180   -0.0207 C.ar      1 <0>        -0.1148
     13 C12         1.2005   -0.6906   -0.0139 C.ar      1 <0>        -0.0833
     14 C13         0.0021   -0.0041    0.0020 C.ar      1 <0>         0.0829
     15 F1         -1.1621   -0.6895    0.0099 F         1 <0>        -0.1356
     16 O1          3.7380   -1.8877   -0.0447 O.2       1 <0>        -0.5279
     17 S1          7.6363    4.3296   -0.0437 S.o2      1 <0>         2.6915
     18 O2          8.5823    3.4825   -0.7533 O.2       1 <0>        -1.0575
     19 O3          7.4172    5.5931   -0.7304 O.2       1 <0>        -1.0556
     20 O4          8.0186    4.5256    1.3460 O.3       1 <0>        -1.0554
     21 H1         -0.9617    1.9072    0.0260 H         1 <0>         0.1449
     22 H2          1.1397    3.1816    0.0079 H         1 <0>         0.1478
     23 H3          2.7773    4.1083   -0.0017 H         1 <0>         0.1360
     24 H4          4.9384    5.2794   -0.0142 H         1 <0>         0.1437
     25 H5          7.0020    1.5473   -0.0552 H         1 <0>         0.1454
     26 H6          1.2077   -1.7705   -0.0197 H         1 <0>         0.1517
     27 H7          5.6886   -0.4443   -0.0538 H         1 <0>         0.4190
@<TRIPOS>BOND
     1    1   14 ar
     2    1    2 ar
     3    1   21 1
     4    2    3 ar
     5    2   22 1
     6    3   12 ar
     7    3    4 1
     8    4    9 ar
     9    4    5 ar
    10    5    6 ar
    11    5   23 1
    12    6    7 ar
    13    6   24 1
    14    7    8 ar
    15    7   17 1
    16    8    9 ar
    17    8   25 1
    18    9   10 1
    19   10   11 am
    20   10   27 1
    21   11   12 1
    22   11   16 2
    23   12   13 ar
    24   13   14 ar
    25   13   26 1
    26   14   15 1
    27   17   18 2
    28   17   19 2
    29   17   20 1
@<TRIPOS>MOLECULE
CHEMBL325336
   62    65     0     0     0
SMALL
USER_CHARGES

@<TRIPOS>ATOM
      1 C1         -0.0167    1.3818    0.0096 C.ar      1 <0>        -0.2916
      2 C2          1.1915    2.0609    0.0018 C.ar      1 <0>         0.1946
      3 N1          2.3197    1.3705   -0.0127 N.ar      1 <0>        -0.5712
      4 C3          2.3029    0.0457   -0.0197 C.ar      1 <0>         0.5651
      5 N2          1.1654   -0.6335   -0.0129 N.ar      1 <0>        -0.5716
      6 C4          0.0021   -0.0041    0.0020 C.ar      1 <0>         0.1944
      7 N3          3.5022   -0.6451   -0.0348 N.pl3     1 <0>        -0.5861
      8 C5          4.7817    0.0778   -0.0370 C.3       1 <0>         0.1145
      9 C6          5.6243   -0.4138    1.1465 C.3       1 <0>         0.0976
     10 N4          5.6410   -1.8833    1.1327 N.am      1 <0>        -0.6087
     11 C7          4.3614   -2.6062    1.1349 C.3       1 <0>         0.0879
     12 C8          3.5188   -2.1146   -0.0429 C.3       1 <0>         0.1127
     13 C9          6.8088   -2.5560    1.1180 C.2       1 <0>         0.5132
     14 O1          7.8585   -1.9485    1.1160 O.2       1 <0>        -0.5330
     15 C10         6.8102   -4.0629    1.1041 C.3       1 <0>         0.1001
     16 N5          8.1919   -4.5498    1.0895 N.am      1 <0>        -0.7180
     17 C11         8.4394   -5.8746    1.0754 C.2       1 <0>         0.5268
     18 O2          7.5184   -6.6636    1.0748 O.2       1 <0>        -0.5352
     19 C12         9.8607   -6.3754    1.0604 C.3       1 <0>        -0.1614
     20 C13         9.8621   -7.9054    1.0462 C.3       1 <0>         0.1230
     21 N6         11.2438   -8.3923    1.0317 N.am      1 <0>        -0.5296
     22 C14        11.8816   -8.6031   -0.1620 C.2       1 <0>         0.2002
     23 C15        13.1425   -9.0476   -0.1761 C.2       1 <0>        -0.2577
     24 C16        13.8105   -9.2993    1.0466 C.2       1 <0>         0.5565
     25 O3         14.9585   -9.7056    1.0531 O.2       1 <0>        -0.5075
     26 N7         13.1529   -9.0808    2.2051 N.am      1 <0>        -0.6609
     27 H1         13.5970   -9.2477    3.0512 H         1 <0>         0.4313
     28 C17        11.8860   -8.6264    2.1918 C.2       1 <0>         0.6966
     29 O4         11.3101   -8.4298    3.2444 O.2       1 <0>        -0.5361
     30 C18        13.8581   -9.2808   -1.4885 C.3       1 <0>        -0.0482
     31 C19        13.2498  -10.5149   -2.1604 C.3       1 <0>        -0.1173
     32 C20        12.0236  -10.1385   -2.9702 C.3       1 <0>        -0.1226
     33 C21        10.8467   -9.6717   -2.1348 C.3       1 <0>        -0.1133
     34 C22        11.1535   -8.3322   -1.4610 C.3       1 <0>        -0.0952
     35 H2         -0.9525    1.9208    0.0259 H         1 <0>         0.1453
     36 H3          1.2116    3.1407    0.0070 H         1 <0>         0.1682
     37 H4         -0.9219   -0.5632    0.0082 H         1 <0>         0.1684
     38 H5          5.3111   -0.1183   -0.9694 H         1 <0>         0.0721
     39 H6          4.5978    1.1474    0.0642 H         1 <0>         0.1133
     40 H7          6.6423   -0.0356    1.0529 H         1 <0>         0.1086
     41 H8          5.1849   -0.0617    2.0797 H         1 <0>         0.0757
     42 H9          4.5453   -3.6758    1.0337 H         1 <0>         0.1022
     43 H10         3.8320   -2.4101    2.0673 H         1 <0>         0.0812
     44 H11         2.5011   -2.4925    0.0544 H         1 <0>         0.1149
     45 H12         3.9562   -2.4704   -0.9758 H         1 <0>         0.0727
     46 H13         6.3033   -4.4350    1.9944 H         1 <0>         0.1026
     47 H14         6.2903   -4.4185    0.2145 H         1 <0>         0.1030
     48 H15         8.9285   -3.9188    1.0899 H         1 <0>         0.4143
     49 H16        10.3676   -6.0034    0.1701 H         1 <0>         0.1039
     50 H17        10.3806   -6.0198    1.9499 H         1 <0>         0.1078
     51 H18         9.3551   -8.2774    1.9365 H         1 <0>         0.1145
     52 H19         9.3422   -8.2610    0.1567 H         1 <0>         0.1106
     53 H20        13.7311   -8.4120   -2.1344 H         1 <0>         0.0777
     54 H21        14.9186   -9.4504   -1.3023 H         1 <0>         0.0874
     55 H22        13.9909  -10.9658   -2.8205 H         1 <0>         0.0716
     56 H23        12.9661  -11.2369   -1.3947 H         1 <0>         0.0627
     57 H24        12.2961   -9.3409   -3.6614 H         1 <0>         0.0648
     58 H25        11.7130  -11.0060   -3.5524 H         1 <0>         0.0653
     59 H26         9.9736   -9.5581   -2.7773 H         1 <0>         0.0796
     60 H27        10.6326  -10.4172   -1.3690 H         1 <0>         0.0669
     61 H28        10.2224   -7.8040   -1.2557 H         1 <0>         0.0896
     62 H29        11.7834   -7.7293   -2.1151 H         1 <0>         0.1060
@<TRIPOS>BOND
     1    1    6 ar
     2    1    2 ar
     3    1   35 1
     4    2    3 ar
     5    2   36 1
     6    3    4 ar
     7    4    5 ar
     8    4    7 1
     9    5    6 ar
    10    6   37 1
    11    7   12 1
    12    7    8 1
    13    8    9 1
    14    8   38 1
    15    8   39 1
    16    9   10 1
    17    9   40 1
    18    9   41 1
    19   10   11 1
    20   10   13 am
    21   11   12 1
    22   11   42 1
    23   11   43 1
    24   12   44 1
    25   12   45 1
    26   13   14 2
    27   13   15 1
    28   15   16 1
    29   15   46 1
    30   15   47 1
    31   16   17 am
    32   16   48 1
    33   17   18 2
    34   17   19 1
    35   19   20 1
    36   19   49 1
    37   19   50 1
    38   20   21 1
    39   20   51 1
    40   20   52 1
    41   21   28 am
    42   21   22 1
    43   22   34 1
    44   22   23 2
    45   23   24 1
    46   23   30 1
    47   24   25 2
    48   24   26 am
    49   26   27 1
    50   26   28 am
    51   28   29 2
    52   30   31 1
    53   30   53 1
    54   30   54 1
    55   31   32 1
    56   31   55 1
    57   31   56 1
    58   32   33 1
    59   32   57 1
    60   32   58 1
    61   33   34 1
    62   33   59 1
    63   33   60 1
    64   34   61 1
    65   34   62 1
@<TRIPOS>MOLECULE
CHEMBL452025
   48    51     0     0     0
SMALL
USER_CHARGES

@<TRIPOS>ATOM
      1 C1         -0.0167    1.3769    0.0096 C.ar      1 <0>        -0.1005
      2 C2          1.1632    2.0980    0.0022 C.ar      1 <0>        -0.0826
      3 C3          2.3901    1.4397   -0.0135 C.ar      1 <0>        -0.0838
      4 C4          2.4203    0.0291   -0.0214 C.ar      1 <0>         0.0977
      5 C5          1.2109   -0.6850   -0.0132 C.ar      1 <0>         0.0437
      6 C6          0.0021   -0.0041    0.0020 C.ar      1 <0>        -0.0838
      7 N1          1.5594   -2.0218   -0.0239 N.pl3     1 <0>        -0.5955
      8 H1          0.9495   -2.7761   -0.0221 H         1 <0>         0.4207
      9 C7          2.9166   -2.0818   -0.0377 C.2       1 <0>         0.2679
     10 N2          3.4163   -0.8785   -0.0362 N.2       1 <0>        -0.4459
     11 C8          3.7253   -3.3533   -0.0521 C.3       1 <0>        -0.0159
     12 C9          2.9896   -4.4189   -0.8698 C.3       1 <0>        -0.1462
     13 C10         3.7766   -5.7301   -0.8142 C.3       1 <0>        -0.0044
     14 N3          3.8945   -6.1755    0.5794 N.4       1 <0>        -0.3818
     15 C11         4.6612   -5.1920    1.3535 C.3       1 <0>        -0.0095
     16 C12         3.9083   -3.8601    1.3814 C.3       1 <0>        -0.1388
     17 C13         4.5823   -7.4729    0.6207 C.3       1 <0>         0.0197
     18 C14         3.7479   -8.5373   -0.1214 C.3       1 <0>        -0.1421
     19 C15         3.9472   -9.8263    0.7139 C.3       1 <0>        -0.1249
     20 C16         3.9545   -9.2935    2.1683 C.3       1 <0>        -0.1307
     21 C17         4.7137   -7.9537    2.0765 C.3       1 <0>        -0.1452
     22 C18         3.6468    2.2101   -0.0224 C.2       1 <0>         0.5575
     23 O1          4.7155    1.6299   -0.0361 O.2       1 <0>        -0.5146
     24 N4          3.6115    3.5573   -0.0152 N.am      1 <0>        -0.8516
     25 H2         -0.9621    1.8987    0.0260 H         1 <0>         0.1448
     26 H3          1.1329    3.1775    0.0083 H         1 <0>         0.1401
     27 H4         -0.9266   -0.5554    0.0083 H         1 <0>         0.1322
     28 H5          4.7011   -3.1597   -0.4976 H         1 <0>         0.1280
     29 H6          1.9942   -4.5740   -0.4537 H         1 <0>         0.0859
     30 H7          2.9048   -4.0889   -1.9051 H         1 <0>         0.1217
     31 H8          3.2557   -6.4908   -1.3956 H         1 <0>         0.1363
     32 H9          4.7717   -5.5739   -1.2307 H         1 <0>         0.1359
     33 H10         4.7934   -5.5555    2.3725 H         1 <0>         0.1376
     34 H11         5.6375   -5.0473    0.8908 H         1 <0>         0.1359
     35 H12         4.4801   -3.1307    1.9551 H         1 <0>         0.1244
     36 H13         2.9319   -4.0036    1.8442 H         1 <0>         0.0884
     37 H14         5.5689   -7.3867    0.1654 H         1 <0>         0.1417
     38 H15         2.6958   -8.2530   -0.1391 H         1 <0>         0.0858
     39 H16         4.1232   -8.6777   -1.1350 H         1 <0>         0.0983
     40 H17         3.1190  -10.5181    0.5602 H         1 <0>         0.0882
     41 H18         4.8982  -10.3006    0.4714 H         1 <0>         0.0840
     42 H19         2.9358   -9.1314    2.5203 H         1 <0>         0.0768
     43 H20         4.4807   -9.9858    2.8255 H         1 <0>         0.0876
     44 H21         5.7640   -8.1017    2.3274 H         1 <0>         0.1037
     45 H22         4.2671   -7.2244    2.7523 H         1 <0>         0.0851
     46 H23         2.7590    4.0201   -0.0042 H         1 <0>         0.4004
     47 H24         4.4385    4.0642   -0.0210 H         1 <0>         0.4086
     48 H25         2.9733   -6.2727    0.9794 H         1 <0>         0.4193
@<TRIPOS>BOND
     1    1    6 ar
     2    1    2 ar
     3    1   25 1
     4    2    3 ar
     5    2   26 1
     6    3    4 ar
     7    3   22 1
     8    4   10 1
     9    4    5 ar
    10    5    6 ar
    11    5    7 1
    12    6   27 1
    13    7    8 1
    14    7    9 1
    15    9   10 2
    16    9   11 1
    17   11   16 1
    18   11   12 1
    19   11   28 1
    20   12   13 1
    21   12   29 1
    22   12   30 1
    23   13   14 1
    24   13   31 1
    25   13   32 1
    26   14   15 1
    27   14   17 1
    28   14   48 1
    29   15   16 1
    30   15   33 1
    31   15   34 1
    32   16   35 1
    33   16   36 1
    34   17   21 1
    35   17   18 1
    36   17   37 1
    37   18   19 1
    38   18   38 1
    39   18   39 1
    40   19   20 1
    41   19   40 1
    42   19   41 1
    43   20   21 1
    44   20   42 1
    45   20   43 1
    46   21   44 1
    47   21   45 1
    48   22   23 2
    49   22   24 am
    50   24   46 1
    51   24   47 1
@<TRIPOS>MOLECULE
CHEMBL370217
   43    46     0     0     0
SMALL
USER_CHARGES

@<TRIPOS>ATOM
      1 C1         -0.0165    1.3627    0.0095 C.ar      1 <0>        -0.0872
      2 C2          1.1654    2.0924    0.0022 C.ar      1 <0>        -0.1109
      3 C3          2.3861    1.4540   -0.0134 C.ar      1 <0>        -0.0544
      4 C4          2.4294    0.0605   -0.0213 C.ar      1 <0>        -0.1256
      5 C5          1.2244   -0.6786   -0.0133 C.ar      1 <0>        -0.0590
      6 C6          0.0021   -0.0041    0.0020 C.ar      1 <0>        -0.0980
      7 C7          1.3000   -2.1396   -0.0224 C.2       1 <0>         0.1346
      8 N1          2.4575   -2.7306   -0.0371 N.2       1 <0>        -0.2167
      9 N2          3.6626   -2.0276   -0.0452 N.am      1 <0>        -0.5320
     10 H1          4.4973   -2.5216   -0.0562 H         1 <0>         0.4375
     11 C8          3.6977   -0.6787   -0.0384 C.2       1 <0>         0.5282
     12 O1          4.7616   -0.0856   -0.0461 O.2       1 <0>        -0.5210
     13 C9          0.0356   -2.9595   -0.0143 C.3       1 <0>        -0.0157
     14 C10         0.3870   -4.4249   -0.0262 C.ar      1 <0>        -0.0790
     15 C11         0.5414   -5.0879   -1.2299 C.ar      1 <0>        -0.0606
     16 C12         0.8633   -6.4324   -1.2458 C.ar      1 <0>        -0.1433
     17 C13         1.0319   -7.1181   -0.0563 C.ar      1 <0>         0.1228
     18 C14         0.8776   -6.4532    1.1546 C.ar      1 <0>         0.0827
     19 C15         0.5599   -5.1023    1.1652 C.ar      1 <0>        -0.0530
     20 N3          1.0472   -7.1450    2.3632 N.am      1 <0>        -0.5241
     21 C16         2.2684   -7.1849    2.9168 C.2       1 <0>         0.5180
     22 O2          3.1925   -6.6338    2.3583 O.2       1 <0>        -0.4820
     23 C17         2.5136   -7.9005    4.2189 C.3       1 <0>        -0.1392
     24 C18         1.5136   -9.0537    4.3552 C.3       1 <0>        -0.1270
     25 C19         0.0956   -8.4882    4.2220 C.3       1 <0>        -0.1390
     26 C20        -0.0192   -7.7360    2.9225 C.2       1 <0>         0.5200
     27 O3         -1.0955   -7.6669    2.3689 O.2       1 <0>        -0.4864
     28 F1          1.3456   -8.4321   -0.0715 F         1 <0>        -0.1323
     29 H2         -0.9631    1.8823    0.0259 H         1 <0>         0.1367
     30 H3          1.1269    3.1717    0.0083 H         1 <0>         0.1374
     31 H4          3.3010    2.0277   -0.0197 H         1 <0>         0.1435
     32 H5         -0.9242   -0.5594    0.0075 H         1 <0>         0.1420
     33 H6         -0.5398   -2.7311    0.8829 H         1 <0>         0.1086
     34 H7         -0.5578   -2.7210   -0.8970 H         1 <0>         0.1123
     35 H8          0.4098   -4.5544   -2.1596 H         1 <0>         0.1392
     36 H9          0.9829   -6.9476   -2.1874 H         1 <0>         0.1448
     37 H10         0.4437   -4.5819    2.1044 H         1 <0>         0.1319
     38 H11         3.5293   -8.2958    4.2317 H         1 <0>         0.1178
     39 H12         2.3821   -7.2046    5.0474 H         1 <0>         0.1143
     40 H13         1.6908   -9.7867    3.5681 H         1 <0>         0.0808
     41 H14         1.6294   -9.5252    5.3310 H         1 <0>         0.1007
     42 H15        -0.6254   -9.3055    4.2369 H         1 <0>         0.1184
     43 H16        -0.1050   -7.8090    5.0506 H         1 <0>         0.1145
@<TRIPOS>BOND
     1    1    6 ar
     2    1    2 ar
     3    1   29 1
     4    2    3 ar
     5    2   30 1
     6    3    4 ar
     7    3   31 1
     8    4   11 1
     9    4    5 ar
    10    5    6 ar
    11    5    7 1
    12    6   32 1
    13    7    8 2
    14    7   13 1
    15    8    9 1
    16    9   10 1
    17    9   11 am
    18   11   12 2
    19   13   14 1
    20   13   33 1
    21   13   34 1
    22   14   19 ar
    23   14   15 ar
    24   15   16 ar
    25   15   35 1
    26   16   17 ar
    27   16   36 1
    28   17   18 ar
    29   17   28 1
    30   18   19 ar
    31   18   20 1
    32   19   37 1
    33   20   26 am
    34   20   21 am
    35   21   22 2
    36   21   23 1
    37   23   24 1
    38   23   38 1
    39   23   39 1
    40   24   25 1
    41   24   40 1
    42   24   41 1
    43   25   26 1
    44   25   42 1
    45   25   43 1
    46   26   27 2
@<TRIPOS>MOLECULE
CHEMBL452800
   44    46     0     0     0
SMALL
USER_CHARGES

@<TRIPOS>ATOM
      1 C1         -0.0187    1.5258    0.0104 C.3       1 <0>        -0.1566
      2 C2          0.0021   -0.0041    0.0020 C.3       1 <0>        -0.1514
      3 C3         -1.4333   -0.5336    0.0129 C.3       1 <0>        -0.0110
      4 N1         -1.4134   -2.0025    0.0048 N.4       1 <0>        -0.3858
      5 C4         -0.8256   -2.4754   -1.2543 C.3       1 <0>        -0.0094
      6 C5         -0.7280   -4.0024   -1.2342 C.3       1 <0>        -0.1394
      7 C6         -2.1299   -4.5959   -1.0688 C.3       1 <0>        -0.0161
      8 C7         -2.7623   -4.0379    0.2095 C.3       1 <0>        -0.1473
      9 C8         -2.7846   -2.5097    0.1358 C.3       1 <0>        -0.0024
     10 C9         -2.0334   -6.0966   -0.9697 C.2       1 <0>         0.2675
     11 N2         -1.7958   -6.7880    0.1755 N.pl3     1 <0>        -0.5956
     12 H1         -1.6609   -6.4105    1.0588 H         1 <0>         0.4207
     13 C10        -1.7829   -8.1297   -0.1541 C.ar      1 <0>         0.0439
     14 C11        -1.5946   -9.2983    0.5697 C.ar      1 <0>        -0.0838
     15 C12        -1.6415  -10.5235   -0.0659 C.ar      1 <0>        -0.1004
     16 C13        -1.8761  -10.6036   -1.4263 C.ar      1 <0>        -0.0825
     17 C14        -2.0689   -9.4464   -2.1763 C.ar      1 <0>        -0.0838
     18 C15        -2.0225   -8.1896   -1.5367 C.ar      1 <0>         0.0976
     19 N3         -2.1710   -6.9217   -1.9685 N.2       1 <0>        -0.4459
     20 C16        -2.3194   -9.5336   -3.6263 C.2       1 <0>         0.5575
     21 O1         -2.4872   -8.5197   -4.2764 O.2       1 <0>        -0.5146
     22 N4         -2.3626  -10.7371   -4.2315 N.am      1 <0>        -0.8517
     23 H2          1.0039    1.9031    0.0027 H         1 <0>         0.0774
     24 H3         -0.5459    1.8868   -0.8726 H         1 <0>         0.0675
     25 H4         -0.5289    1.8773    0.9072 H         1 <0>         0.0671
     26 H5          0.5123   -0.3556   -0.8948 H         1 <0>         0.0867
     27 H6          0.5293   -0.3651    0.8851 H         1 <0>         0.0853
     28 H7         -1.9435   -0.1821    0.9097 H         1 <0>         0.1317
     29 H8         -1.9605   -0.1726   -0.8702 H         1 <0>         0.1314
     30 H9         -1.4542   -2.1630   -2.0882 H         1 <0>         0.1358
     31 H10         0.1709   -2.0496   -1.3721 H         1 <0>         0.1379
     32 H11        -0.2929   -4.3517   -2.1706 H         1 <0>         0.1242
     33 H12        -0.0993   -4.3160   -0.4007 H         1 <0>         0.0889
     34 H13        -2.7441   -4.3250   -1.9276 H         1 <0>         0.1278
     35 H14        -3.7814   -4.4126    0.3049 H         1 <0>         0.1217
     36 H15        -2.1759   -4.3522    1.0728 H         1 <0>         0.0865
     37 H16        -3.2344   -2.1091    1.0443 H         1 <0>         0.1366
     38 H17        -3.3714   -2.1965   -0.7277 H         1 <0>         0.1358
     39 H18        -1.4105   -9.2497    1.6328 H         1 <0>         0.1323
     40 H19        -1.4930  -11.4281    0.5052 H         1 <0>         0.1449
     41 H20        -1.9097  -11.5688   -1.9097 H         1 <0>         0.1402
     42 H21        -2.2288  -11.5458   -3.7129 H         1 <0>         0.4004
     43 H22        -2.5275  -10.7945   -5.1857 H         1 <0>         0.4086
     44 H23        -0.8576   -2.3346    0.7787 H         1 <0>         0.4217
@<TRIPOS>BOND
     1    1    2 1
     2    1   23 1
     3    1   24 1
     4    1   25 1
     5    2    3 1
     6    2   26 1
     7    2   27 1
     8    3    4 1
     9    3   28 1
    10    3   29 1
    11    4    9 1
    12    4    5 1
    13    4   44 1
    14    5    6 1
    15    5   30 1
    16    5   31 1
    17    6    7 1
    18    6   32 1
    19    6   33 1
    20    7    8 1
    21    7   10 1
    22    7   34 1
    23    8    9 1
    24    8   35 1
    25    8   36 1
    26    9   37 1
    27    9   38 1
    28   10   19 2
    29   10   11 1
    30   11   12 1
    31   11   13 1
    32   13   18 ar
    33   13   14 ar
    34   14   15 ar
    35   14   39 1
    36   15   16 ar
    37   15   40 1
    38   16   17 ar
    39   16   41 1
    40   17   18 ar
    41   17   20 1
    42   18   19 1
    43   20   21 2
    44   20   22 am
    45   22   42 1
    46   22   43 1
@<TRIPOS>MOLECULE
CHEMBL452784
   42    45     0     0     0
SMALL
USER_CHARGES

@<TRIPOS>ATOM
      1 C1          0.2533    1.3385    0.8109 C.ar      1 <0>        -0.0865
      2 C2          0.9947    1.5491    1.9590 C.ar      1 <0>        -0.0794
      3 C3          2.0265    0.6785    2.2999 C.ar      1 <0>        -0.0765
      4 C4          2.3098   -0.4222    1.4639 C.ar      1 <0>         0.0911
      5 C5          1.5449   -0.6190    0.3025 C.ar      1 <0>         0.0613
      6 C6          0.5226    0.2641   -0.0140 C.ar      1 <0>        -0.0856
      7 N1          2.0507   -1.7563   -0.2970 N.pl3     1 <0>        -0.5838
      8 H1          1.7381   -2.1604   -1.1215 H         1 <0>         0.4294
      9 C7          3.0685   -2.2022    0.4848 C.2       1 <0>         0.2236
     10 N2          3.2165   -1.4179    1.5146 N.2       1 <0>        -0.4194
     11 C8          3.9033   -3.4247    0.2025 C.3       1 <0>         0.1158
     12 C9          4.7694   -3.8619    1.3922 C.3       1 <0>        -0.1352
     13 C10         5.8138   -4.1497    0.3045 C.3       1 <0>        -0.0029
     14 N3          5.1500   -3.1290   -0.5278 N.4       1 <0>        -0.4060
     15 C11         5.6539   -1.7686   -0.2964 C.3       1 <0>         0.0346
     16 C12         4.7339   -0.7399   -0.9857 C.3       1 <0>        -0.1403
     17 C13         5.7052    0.3454   -1.5126 C.3       1 <0>        -0.1220
     18 C14         6.9242   -0.4863   -1.9833 C.3       1 <0>        -0.1281
     19 C15         7.0465   -1.6073   -0.9307 C.3       1 <0>        -0.1379
     20 C16         2.8164    0.9051    3.5236 C.2       1 <0>         0.5583
     21 O1          3.6487    0.0889    3.8700 O.2       1 <0>        -0.5163
     22 N4          2.6163    2.0169    4.2587 N.am      1 <0>        -0.8490
     23 H2         -0.5473    2.0183    0.5592 H         1 <0>         0.1496
     24 H3          0.7725    2.3936    2.5945 H         1 <0>         0.1443
     25 H4         -0.0642    0.1107   -0.9076 H         1 <0>         0.1378
     26 H5          3.3251   -4.2376   -0.2369 H         1 <0>         0.1776
     27 H6          5.0409   -3.0512    2.0683 H         1 <0>         0.1409
     28 H7          4.4046   -4.7507    1.9070 H         1 <0>         0.1360
     29 H8          6.8291   -3.8799    0.5951 H         1 <0>         0.1421
     30 H9          5.7459   -5.1567   -0.1071 H         1 <0>         0.1563
     31 H10         5.7053   -1.5667    0.7735 H         1 <0>         0.1502
     32 H11         4.1952   -1.2035   -1.8122 H         1 <0>         0.0759
     33 H12         4.0357   -0.3107   -0.2671 H         1 <0>         0.0957
     34 H13         5.2620    0.8879   -2.3477 H         1 <0>         0.0853
     35 H14         5.9900    1.0298   -0.7135 H         1 <0>         0.0825
     36 H15         6.7392   -0.9088   -2.9709 H         1 <0>         0.0760
     37 H16         7.8245    0.1281   -1.9927 H         1 <0>         0.0877
     38 H17         7.7736   -1.3263   -0.1688 H         1 <0>         0.1030
     39 H18         7.3485   -2.5384   -1.4102 H         1 <0>         0.0838
     40 H19         1.9524    2.6679    3.9825 H         1 <0>         0.4016
     41 H20         3.1361    2.1660    5.0640 H         1 <0>         0.4107
     42 H21         5.1096   -3.3731   -1.5060 H         1 <0>         0.4178
@<TRIPOS>BOND
     1    1    6 ar
     2    1    2 ar
     3    1   23 1
     4    2    3 ar
     5    2   24 1
     6    3    4 ar
     7    3   20 1
     8    4   10 1
     9    4    5 ar
    10    5    6 ar
    11    5    7 1
    12    6   25 1
    13    7    8 1
    14    7    9 1
    15    9   10 2
    16    9   11 1
    17   11   14 1
    18   11   12 1
    19   11   26 1
    20   12   13 1
    21   12   27 1
    22   12   28 1
    23   13   14 1
    24   13   29 1
    25   13   30 1
    26   14   15 1
    27   14   42 1
    28   15   19 1
    29   15   16 1
    30   15   31 1
    31   16   17 1
    32   16   32 1
    33   16   33 1
    34   17   18 1
    35   17   34 1
    36   17   35 1
    37   18   19 1
    38   18   36 1
    39   18   37 1
    40   19   38 1
    41   19   39 1
    42   20   21 2
    43   20   22 am
    44   22   40 1
    45   22   41 1
@<TRIPOS>MOLECULE
CHEMBL452784__1
   42    45     0     0     0
SMALL
USER_CHARGES

@<TRIPOS>ATOM
      1 C1         -0.0167    1.3769    0.0096 C.ar      1 <0>        -0.0900
      2 C2          1.1632    2.0980    0.0022 C.ar      1 <0>        -0.0769
      3 C3          2.3901    1.4397   -0.0135 C.ar      1 <0>        -0.0820
      4 C4          2.4203    0.0291   -0.0214 C.ar      1 <0>         0.0995
      5 C5          1.2109   -0.6850   -0.0132 C.ar      1 <0>         0.0581
      6 C6          0.0021   -0.0041    0.0020 C.ar      1 <0>        -0.0814
      7 N1          1.5594   -2.0218   -0.0239 N.pl3     1 <0>        -0.5735
      8 H1          0.9495   -2.7761   -0.0221 H         1 <0>         0.4326
      9 C7          2.9166   -2.0818   -0.0377 C.2       1 <0>         0.2279
     10 N2          3.4163   -0.8785   -0.0362 N.2       1 <0>        -0.4500
     11 C8          3.7253   -3.3533   -0.0521 C.3       1 <0>         0.1219
     12 C9          4.3799   -3.6464   -1.4094 C.3       1 <0>        -0.1453
     13 C10         5.5617   -4.1084   -0.5454 C.3       1 <0>         0.0008
     14 N3          5.0807   -3.1939    0.5069 N.4       1 <0>        -0.3973
     15 C11         5.2209   -3.7394    1.8637 C.3       1 <0>         0.0207
     16 C12         4.2978   -2.9781    2.8373 C.3       1 <0>        -0.1423
     17 C13         5.1189   -2.8885    4.1476 C.3       1 <0>        -0.1218
     18 C14         6.5603   -2.6522    3.6322 C.3       1 <0>        -0.1303
     19 C15         6.6594   -3.5322    2.3691 C.3       1 <0>        -0.1376
     20 C16         3.6468    2.2101   -0.0224 C.2       1 <0>         0.5611
     21 O1          4.7155    1.6299   -0.0361 O.2       1 <0>        -0.5226
     22 N4          3.6115    3.5573   -0.0152 N.am      1 <0>        -0.8484
     23 H2         -0.9621    1.8987    0.0260 H         1 <0>         0.1500
     24 H3          1.1329    3.1775    0.0083 H         1 <0>         0.1440
     25 H4         -0.9266   -0.5554    0.0083 H         1 <0>         0.1390
     26 H5          3.1821   -4.2030    0.3616 H         1 <0>         0.1743
     27 H6          3.8996   -4.4463   -1.9731 H         1 <0>         0.1380
     28 H7          4.5844   -2.7583   -2.0073 H         1 <0>         0.1318
     29 H8          5.5090   -5.1602   -0.2641 H         1 <0>         0.1552
     30 H9          6.5331   -3.8286   -0.9531 H         1 <0>         0.1445
     31 H10         4.9735   -4.8010    1.8664 H         1 <0>         0.1405
     32 H11         4.0794   -1.9810    2.4550 H         1 <0>         0.0878
     33 H12         3.3753   -3.5348    3.0025 H         1 <0>         0.0901
     34 H13         4.7839   -2.0490    4.7567 H         1 <0>         0.0856
     35 H14         5.0568   -3.8220    4.7069 H         1 <0>         0.0824
     36 H15         6.7073   -1.6024    3.3783 H         1 <0>         0.0783
     37 H16         7.2890   -2.9711    4.3775 H         1 <0>         0.0872
     38 H17         7.1098   -4.4931    2.6179 H         1 <0>         0.1023
     39 H18         7.2535   -3.0269    1.6076 H         1 <0>         0.0841
     40 H19         2.7590    4.0201   -0.0042 H         1 <0>         0.4022
     41 H20         4.4385    4.0642   -0.0210 H         1 <0>         0.4105
     42 H21         5.4429   -2.2562    0.4199 H         1 <0>         0.4488
@<TRIPOS>BOND
     1    1    6 ar
     2    1    2 ar
     3    1   23 1
     4    2    3 ar
     5    2   24 1
     6    3    4 ar
     7    3   20 1
     8    4   10 1
     9    4    5 ar
    10    5    6 ar
    11    5    7 1
    12    6   25 1
    13    7    8 1
    14    7    9 1
    15    9   10 2
    16    9   11 1
    17   11   14 1
    18   11   12 1
    19   11   26 1
    20   12   13 1
    21   12   27 1
    22   12   28 1
    23   13   14 1
    24   13   29 1
    25   13   30 1
    26   14   15 1
    27   14   42 1
    28   15   19 1
    29   15   16 1
    30   15   31 1
    31   16   17 1
    32   16   32 1
    33   16   33 1
    34   17   18 1
    35   17   34 1
    36   17   35 1
    37   18   19 1
    38   18   36 1
    39   18   37 1
    40   19   38 1
    41   19   39 1
    42   20   21 2
    43   20   22 am
    44   22   40 1
    45   22   41 1
@<TRIPOS>MOLECULE
CHEMBL571900
   46    49     0     0     0
SMALL
USER_CHARGES

@<TRIPOS>ATOM
      1 C1          0.3703    1.9376    5.5871 C.ar      1 <0>        -0.0822
      2 C2          0.4087    0.5837    5.8633 C.ar      1 <0>        -0.1146
      3 C3          1.6149   -0.0913    5.8464 C.ar      1 <0>        -0.0930
      4 C4          2.7827    0.5876    5.5528 C.ar      1 <0>        -0.1689
      5 C5          2.7443    1.9413    5.2757 C.ar      1 <0>        -0.0930
      6 C6          1.5382    2.6166    5.2940 C.ar      1 <0>        -0.1145
      7 C7          4.0979   -0.1481    5.5354 C.3       1 <0>         0.0470
      8 N1          4.3503   -0.6679    4.1848 N.4       1 <0>        -0.5099
      9 C8          5.6323   -1.3850    4.1678 C.3       1 <0>        -0.0134
     10 C9          5.8952   -1.9263    2.7611 C.3       1 <0>        -0.0659
     11 C10         7.2103   -2.6620    2.7437 C.2       1 <0>        -0.1956
     12 C11         7.3905   -3.9804    2.9166 C.2       1 <0>         0.0873
     13 N2          8.7223   -4.2848    2.8350 N.pl3     1 <0>        -0.5840
     14 H1          9.0962   -5.1750    2.9280 H         1 <0>         0.4263
     15 C12         9.4519   -3.1440    2.6020 C.ar      1 <0>         0.1237
     16 C13         8.5358   -2.0747    2.5282 C.ar      1 <0>        -0.1053
     17 C14         8.9965   -0.7848    2.2914 C.ar      1 <0>        -0.0094
     18 C15        10.3624   -0.5641    2.1283 C.ar      1 <0>        -0.1505
     19 C16        11.2623   -1.6326    2.2001 C.ar      1 <0>        -0.0352
     20 C17        10.8138   -2.8994    2.4382 C.ar      1 <0>        -0.1304
     21 C18        10.8342    0.8138    1.8815 C.2       1 <0>         0.5656
     22 O1         11.9423    1.0115    1.4221 O.2       1 <0>        -0.5235
     23 N3         10.0214    1.8493    2.1713 N.am      1 <0>        -0.7296
     24 C19         8.7086    1.6336    2.7740 C.3       1 <0>         0.1135
     25 C20         8.0468    0.3799    2.2067 C.3       1 <0>        -0.1010
     26 H2         -0.5726    2.4641    5.5959 H         1 <0>         0.1359
     27 H3         -0.5038    0.0533    6.0927 H         1 <0>         0.1361
     28 H4          1.6449   -1.1489    6.0629 H         1 <0>         0.1313
     29 H5          3.6568    2.4718    5.0467 H         1 <0>         0.1317
     30 H6          1.5083    3.6743    5.0779 H         1 <0>         0.1362
     31 H7          4.8996    0.5342    5.8178 H         1 <0>         0.1377
     32 H8          4.0600   -0.9768    6.2424 H         1 <0>         0.1378
     33 H9          3.6081   -1.2995    3.9233 H         1 <0>         0.4280
     34 H10         6.4340   -0.7027    4.4502 H         1 <0>         0.1328
     35 H11         5.5944   -2.2137    4.8748 H         1 <0>         0.1351
     36 H12         5.0934   -2.6086    2.4787 H         1 <0>         0.0957
     37 H13         5.9330   -1.0976    2.0541 H         1 <0>         0.0950
     38 H14         6.6011   -4.6956    3.0946 H         1 <0>         0.1765
     39 H15        12.3194   -1.4533    2.0707 H         1 <0>         0.1444
     40 H16        11.5168   -3.7177    2.4895 H         1 <0>         0.1340
     41 H17        10.3136    2.7535    1.9764 H         1 <0>         0.4097
     42 H18         8.8235    1.5214    3.8521 H         1 <0>         0.0661
     43 H19         8.0748    2.4966    2.5702 H         1 <0>         0.0906
     44 H20         7.7779    0.5525    1.1646 H         1 <0>         0.0936
     45 H21         7.1467    0.1552    2.7789 H         1 <0>         0.0815
     46 H22         4.3853    0.0993    3.5303 H         1 <0>         0.4265
@<TRIPOS>BOND
     1    1    6 ar
     2    1    2 ar
     3    1   26 1
     4    2    3 ar
     5    2   27 1
     6    3    4 ar
     7    3   28 1
     8    4    5 ar
     9    4    7 1
    10    5    6 ar
    11    5   29 1
    12    6   30 1
    13    7    8 1
    14    7   31 1
    15    7   32 1
    16    8    9 1
    17    8   33 1
    18    8   46 1
    19    9   10 1
    20    9   34 1
    21    9   35 1
    22   10   11 1
    23   10   36 1
    24   10   37 1
    25   11   16 1
    26   11   12 2
    27   12   13 1
    28   12   38 1
    29   13   14 1
    30   13   15 1
    31   15   20 ar
    32   15   16 ar
    33   16   17 ar
    34   17   25 1
    35   17   18 ar
    36   18   19 ar
    37   18   21 1
    38   19   20 ar
    39   19   39 1
    40   20   40 1
    41   21   22 2
    42   21   23 am
    43   23   24 1
    44   23   41 1
    45   24   25 1
    46   24   42 1
    47   24   43 1
    48   25   44 1
    49   25   45 1
@<TRIPOS>MOLECULE
CHEMBL571900__1
   45    48     0     0     0
SMALL
USER_CHARGES

@<TRIPOS>ATOM
      1 C1          0.2289    1.9819    5.3355 C.ar      1 <0>        -0.1191
      2 C2          0.2623    0.6358    5.6481 C.ar      1 <0>        -0.1208
      3 C3          1.4720   -0.0310    5.7039 C.ar      1 <0>        -0.1152
      4 C4          2.6481    0.6482    5.4466 C.ar      1 <0>        -0.0856
      5 C5          2.6146    1.9942    5.1331 C.ar      1 <0>        -0.0973
      6 C6          1.4051    2.6613    5.0787 C.ar      1 <0>        -0.1212
      7 C7          3.9669   -0.0784    5.5084 C.3       1 <0>         0.0988
      8 N1          4.2841   -0.6308    4.1847 N.3       1 <0>        -0.6850
      9 C8          5.5660   -1.3478    4.2068 C.3       1 <0>         0.0613
     10 C9          5.8615   -1.9075    2.8139 C.3       1 <0>        -0.0471
     11 C10         7.1766   -2.6430    2.8366 C.2       1 <0>        -0.1586
     12 C11         7.3525   -3.9590    3.0309 C.2       1 <0>         0.0530
     13 N2          8.6858   -4.2643    2.9843 N.pl3     1 <0>        -0.5906
     14 H1          9.0573   -5.1531    3.0976 H         1 <0>         0.4191
     15 C12         9.4208   -3.1265    2.7535 C.ar      1 <0>         0.1245
     16 C13         8.5068   -2.0584    2.6444 C.ar      1 <0>        -0.1098
     17 C14         8.9731   -0.7716    2.4017 C.ar      1 <0>         0.0108
     18 C15        10.3424   -0.5528    2.2676 C.ar      1 <0>        -0.1691
     19 C16        11.2403   -1.6202    2.3742 C.ar      1 <0>        -0.0372
     20 C17        10.7863   -2.8839    2.6183 C.ar      1 <0>        -0.1424
     21 C18        10.8200    0.8218    2.0139 C.2       1 <0>         0.5702
     22 O1         11.9386    1.0137    1.5778 O.2       1 <0>        -0.5395
     23 N3         10.0009    1.8609    2.2711 N.am      1 <0>        -0.7286
     24 C19         8.6743    1.6528    2.8459 C.3       1 <0>         0.1154
     25 C20         8.0258    0.3917    2.2797 C.3       1 <0>        -0.1113
     26 H2         -0.7165    2.5018    5.2875 H         1 <0>         0.1211
     27 H3         -0.6566    0.1051    5.8491 H         1 <0>         0.1212
     28 H4          1.4981   -1.0825    5.9488 H         1 <0>         0.1177
     29 H5          3.5335    2.5249    4.9325 H         1 <0>         0.1229
     30 H6          1.3789    3.7129    4.8342 H         1 <0>         0.1222
     31 H7          4.7508    0.6164    5.8095 H         1 <0>         0.0813
     32 H8          3.9014   -0.8890    6.2341 H         1 <0>         0.0388
     33 H9          3.5411   -1.2285    3.8547 H         1 <0>         0.3427
     34 H10         6.3611   -0.6618    4.4989 H         1 <0>         0.0750
     35 H11         5.5116   -2.1672    4.9236 H         1 <0>         0.0317
     36 H12         5.0665   -2.5935    2.5218 H         1 <0>         0.0710
     37 H13         5.9159   -1.0881    2.0971 H         1 <0>         0.0837
     38 H14         6.5591   -4.6720    3.1997 H         1 <0>         0.1714
     39 H15        12.3002   -1.4423    2.2671 H         1 <0>         0.1381
     40 H16        11.4877   -3.7013    2.6965 H         1 <0>         0.1273
     41 H17        10.2976    2.7625    2.0714 H         1 <0>         0.4048
     42 H18         8.7641    1.5546    3.9278 H         1 <0>         0.0665
     43 H19         8.0455    2.5130    2.6161 H         1 <0>         0.0905
     44 H20         7.7813    0.5507    1.2295 H         1 <0>         0.0896
     45 H21         7.1126    0.1744    2.8336 H         1 <0>         0.1078
@<TRIPOS>BOND
     1    1    6 ar
     2    1    2 ar
     3    1   26 1
     4    2    3 ar
     5    2   27 1
     6    3    4 ar
     7    3   28 1
     8    4    5 ar
     9    4    7 1
    10    5    6 ar
    11    5   29 1
    12    6   30 1
    13    7    8 1
    14    7   31 1
    15    7   32 1
    16    8    9 1
    17    8   33 1
    18    9   10 1
    19    9   34 1
    20    9   35 1
    21   10   11 1
    22   10   36 1
    23   10   37 1
    24   11   16 1
    25   11   12 2
    26   12   13 1
    27   12   38 1
    28   13   14 1
    29   13   15 1
    30   15   20 ar
    31   15   16 ar
    32   16   17 ar
    33   17   25 1
    34   17   18 ar
    35   18   19 ar
    36   18   21 1
    37   19   20 ar
    38   19   39 1
    39   20   40 1
    40   21   22 2
    41   21   23 am
    42   23   24 1
    43   23   41 1
    44   24   25 1
    45   24   42 1
    46   24   43 1
    47   25   44 1
    48   25   45 1
@<TRIPOS>MOLECULE
CHEMBL504878
   42    45     0     0     0
SMALL
USER_CHARGES

@<TRIPOS>ATOM
      1 C1         -0.0167    1.3769    0.0096 C.ar      1 <0>        -0.0931
      2 C2          1.1632    2.0980    0.0022 C.ar      1 <0>        -0.0812
      3 C3          2.3901    1.4397   -0.0135 C.ar      1 <0>        -0.0788
      4 C4          2.4203    0.0291   -0.0214 C.ar      1 <0>         0.0944
      5 C5          1.2109   -0.6850   -0.0132 C.ar      1 <0>         0.0525
      6 C6          0.0021   -0.0041    0.0020 C.ar      1 <0>        -0.0853
      7 N1          1.5594   -2.0218   -0.0239 N.pl3     1 <0>        -0.5953
      8 H1          0.9495   -2.7761   -0.0221 H         1 <0>         0.4209
      9 C7          2.9166   -2.0818   -0.0377 C.2       1 <0>         0.2534
     10 N2          3.4163   -0.8785   -0.0362 N.2       1 <0>        -0.4285
     11 C8          3.7253   -3.3533   -0.0521 C.3       1 <0>        -0.0373
     12 C9          2.8908   -4.6152   -0.3365 C.3       1 <0>         0.0044
     13 N3          3.6905   -5.2634    0.7263 N.4       1 <0>        -0.4086
     14 C10         3.9681   -3.9491    1.3464 C.3       1 <0>         0.0148
     15 C11         4.8992   -5.9219    0.2131 C.3       1 <0>         0.0292
     16 C12         4.5111   -7.0617   -0.7512 C.3       1 <0>        -0.1414
     17 C13         5.5529   -8.1718   -0.4660 C.3       1 <0>        -0.1245
     18 C14         5.7350   -8.0833    1.0695 C.3       1 <0>        -0.1303
     19 C15         5.6774   -6.5714    1.3708 C.3       1 <0>        -0.1413
     20 C16         3.6468    2.2101   -0.0224 C.2       1 <0>         0.5570
     21 O1          4.7155    1.6299   -0.0361 O.2       1 <0>        -0.5141
     22 N4          3.6115    3.5573   -0.0152 N.am      1 <0>        -0.8503
     23 H2         -0.9621    1.8987    0.0260 H         1 <0>         0.1475
     24 H3          1.1329    3.1775    0.0083 H         1 <0>         0.1425
     25 H4         -0.9266   -0.5554    0.0083 H         1 <0>         0.1351
     26 H5          4.6276   -3.2761   -0.6588 H         1 <0>         0.1617
     27 H6          1.8348   -4.5085   -0.0883 H         1 <0>         0.1448
     28 H7          3.0553   -5.0361   -1.3284 H         1 <0>         0.1545
     29 H8          4.9935   -3.8378    1.6992 H         1 <0>         0.1542
     30 H9          3.2273   -3.6475    2.0869 H         1 <0>         0.1539
     31 H10         5.5301   -5.1962   -0.3001 H         1 <0>         0.1443
     32 H11         3.5042   -7.4186   -0.5344 H         1 <0>         0.0866
     33 H12         4.5836   -6.7272   -1.7861 H         1 <0>         0.0982
     34 H13         5.1646   -9.1490   -0.7533 H         1 <0>         0.0887
     35 H14         6.4914   -7.9619   -0.9791 H         1 <0>         0.0847
     36 H15         4.9259   -8.6052    1.5804 H         1 <0>         0.0770
     37 H16         6.7008   -8.4943    1.3635 H         1 <0>         0.0882
     38 H17         6.6863   -6.1616    1.4189 H         1 <0>         0.1045
     39 H18         5.1582   -6.3981    2.3134 H         1 <0>         0.0843
     40 H19         2.7590    4.0201   -0.0042 H         1 <0>         0.4009
     41 H20         4.4385    4.0642   -0.0210 H         1 <0>         0.4098
     42 H21         3.1417   -5.8696    1.3175 H         1 <0>         0.4217
@<TRIPOS>BOND
     1    1    6 ar
     2    1    2 ar
     3    1   23 1
     4    2    3 ar
     5    2   24 1
     6    3    4 ar
     7    3   20 1
     8    4   10 1
     9    4    5 ar
    10    5    6 ar
    11    5    7 1
    12    6   25 1
    13    7    8 1
    14    7    9 1
    15    9   10 2
    16    9   11 1
    17   11   14 1
    18   11   12 1
    19   11   26 1
    20   12   13 1
    21   12   27 1
    22   12   28 1
    23   13   14 1
    24   13   15 1
    25   13   42 1
    26   14   29 1
    27   14   30 1
    28   15   19 1
    29   15   16 1
    30   15   31 1
    31   16   17 1
    32   16   32 1
    33   16   33 1
    34   17   18 1
    35   17   34 1
    36   17   35 1
    37   18   19 1
    38   18   36 1
    39   18   37 1
    40   19   38 1
    41   19   39 1
    42   20   21 2
    43   20   22 am
    44   22   40 1
    45   22   41 1
@<TRIPOS>MOLECULE
CHEMBL1092691
   45    48     0     0     0
SMALL
USER_CHARGES

@<TRIPOS>ATOM
      1 C1         -0.0167    1.3774    0.0096 C.ar      1 <0>        -0.1041
      2 C2          1.1628    2.0989    0.0022 C.ar      1 <0>        -0.0827
      3 C3          2.3901    1.4411   -0.0130 C.ar      1 <0>        -0.0872
      4 C4          2.4210    0.0291   -0.0208 C.ar      1 <0>         0.1016
      5 C5          1.2101   -0.6854   -0.0131 C.ar      1 <0>         0.0459
      6 C6          0.0021   -0.0041    0.0020 C.ar      1 <0>        -0.0813
      7 N1          1.5541   -2.0239   -0.0235 N.pl3     1 <0>        -0.5914
      8 H1          0.9423   -2.7767   -0.0217 H         1 <0>         0.4252
      9 C7          2.9199   -2.0865   -0.0368 C.2       1 <0>         0.3086
     10 N2          3.4185   -0.8725   -0.0351 N.2       1 <0>        -0.4448
     11 C8          3.7148   -3.3333   -0.0503 C.ar      1 <0>        -0.0071
     12 C9          3.0740   -4.5730   -0.0559 C.ar      1 <0>        -0.0977
     13 C10         3.8215   -5.7325   -0.0689 C.ar      1 <0>        -0.1016
     14 C11         5.2035   -5.6681   -0.0761 C.ar      1 <0>        -0.0889
     15 C12         5.8450   -4.4422   -0.0701 C.ar      1 <0>        -0.1107
     16 C13         5.1092   -3.2753   -0.0634 C.ar      1 <0>        -0.0622
     17 C14         6.0137   -6.9387   -0.0898 C.3       1 <0>        -0.0612
     18 C15         6.9081   -6.9884    1.1523 C.3       1 <0>        -0.1335
     19 C16         7.7831   -8.2436    1.0893 C.3       1 <0>        -0.1471
     20 C17         8.5935   -8.2292   -0.2086 C.3       1 <0>        -0.0095
     21 N3          7.6817   -8.2083   -1.3588 N.4       1 <0>        -0.5044
     22 C18         6.8896   -6.9727   -1.3440 C.3       1 <0>        -0.0063
     23 C19         3.6461    2.2117   -0.0213 C.2       1 <0>         0.5591
     24 O1          4.7151    1.6321   -0.0346 O.2       1 <0>        -0.5155
     25 N4          3.6101    3.5590   -0.0142 N.am      1 <0>        -0.8528
     26 H2         -0.9622    1.8990    0.0260 H         1 <0>         0.1440
     27 H3          1.1320    3.1784    0.0079 H         1 <0>         0.1390
     28 H4         -0.9267   -0.5551    0.0082 H         1 <0>         0.1328
     29 H5          1.9952   -4.6246   -0.0496 H         1 <0>         0.1274
     30 H6          3.3268   -6.6925   -0.0733 H         1 <0>         0.1328
     31 H7          6.9242   -4.3988   -0.0750 H         1 <0>         0.1305
     32 H8          5.6111   -2.3190   -0.0637 H         1 <0>         0.1489
     33 H9          5.3431   -7.7980   -0.0908 H         1 <0>         0.1032
     34 H10         7.5428   -6.1027    1.1801 H         1 <0>         0.0864
     35 H11         6.2871   -7.0215    2.0475 H         1 <0>         0.0970
     36 H12         8.4619   -8.2573    1.9420 H         1 <0>         0.1146
     37 H13         7.1498   -9.1304    1.1131 H         1 <0>         0.0892
     38 H14         9.2266   -7.3422   -0.2313 H         1 <0>         0.1312
     39 H15         9.2177   -9.1214   -0.2566 H         1 <0>         0.1341
     40 H16         8.2177   -8.2529   -2.2124 H         1 <0>         0.4333
     41 H17         6.2560   -6.9372   -2.2302 H         1 <0>         0.1361
     42 H18         7.5591   -6.1125   -1.3425 H         1 <0>         0.1337
     43 H19         2.7574    4.0213   -0.0036 H         1 <0>         0.4001
     44 H20         4.4368    4.0663   -0.0197 H         1 <0>         0.4072
     45 H21         7.0630   -9.0039   -1.3106 H         1 <0>         0.4279
@<TRIPOS>BOND
     1    1    6 ar
     2    1    2 ar
     3    1   26 1
     4    2    3 ar
     5    2   27 1
     6    3    4 ar
     7    3   23 1
     8    4   10 1
     9    4    5 ar
    10    5    6 ar
    11    5    7 1
    12    6   28 1
    13    7    8 1
    14    7    9 1
    15    9   10 2
    16    9   11 1
    17   11   16 ar
    18   11   12 ar
    19   12   13 ar
    20   12   29 1
    21   13   14 ar
    22   13   30 1
    23   14   15 ar
    24   14   17 1
    25   15   16 ar
    26   15   31 1
    27   16   32 1
    28   17   22 1
    29   17   18 1
    30   17   33 1
    31   18   19 1
    32   18   34 1
    33   18   35 1
    34   19   20 1
    35   19   36 1
    36   19   37 1
    37   20   21 1
    38   20   38 1
    39   20   39 1
    40   21   22 1
    41   21   40 1
    42   21   45 1
    43   22   41 1
    44   22   42 1
    45   23   24 2
    46   23   25 am
    47   25   43 1
    48   25   44 1
@<TRIPOS>MOLECULE
CHEMBL1092691__1
   45    48     0     0     0
SMALL
USER_CHARGES

@<TRIPOS>ATOM
      1 C1         -0.0167    1.3774    0.0096 C.ar      1 <0>        -0.1041
      2 C2          1.1628    2.0989    0.0022 C.ar      1 <0>        -0.0827
      3 C3          2.3901    1.4411   -0.0130 C.ar      1 <0>        -0.0872
      4 C4          2.4210    0.0291   -0.0208 C.ar      1 <0>         0.1015
      5 C5          1.2101   -0.6854   -0.0131 C.ar      1 <0>         0.0459
      6 C6          0.0021   -0.0041    0.0020 C.ar      1 <0>        -0.0813
      7 N1          1.5541   -2.0239   -0.0235 N.pl3     1 <0>        -0.5914
      8 H1          0.9423   -2.7767   -0.0217 H         1 <0>         0.4252
      9 C7          2.9199   -2.0865   -0.0368 C.2       1 <0>         0.3086
     10 N2          3.4185   -0.8725   -0.0351 N.2       1 <0>        -0.4447
     11 C8          3.7148   -3.3333   -0.0503 C.ar      1 <0>        -0.0072
     12 C9          3.0740   -4.5730   -0.0559 C.ar      1 <0>        -0.0977
     13 C10         3.8215   -5.7325   -0.0689 C.ar      1 <0>        -0.1016
     14 C11         5.2035   -5.6681   -0.0761 C.ar      1 <0>        -0.0888
     15 C12         5.8450   -4.4422   -0.0701 C.ar      1 <0>        -0.1108
     16 C13         5.1092   -3.2753   -0.0634 C.ar      1 <0>        -0.0621
     17 C14         6.0137   -6.9387   -0.0898 C.3       1 <0>        -0.0612
     18 C15         6.8944   -6.9701   -1.3423 C.3       1 <0>        -0.1335
     19 C16         7.7700   -8.2261   -1.3073 C.3       1 <0>        -0.1470
     20 C17         8.5945   -8.2306   -0.0183 C.3       1 <0>        -0.0095
     21 N3          7.6955   -8.2266    1.1420 N.4       1 <0>        -0.5044
     22 C18         6.9033   -6.9910    1.1541 C.3       1 <0>        -0.0063
     23 C19         3.6461    2.2117   -0.0213 C.2       1 <0>         0.5591
     24 O1          4.7151    1.6321   -0.0346 O.2       1 <0>        -0.5155
     25 N4          3.6101    3.5590   -0.0142 N.am      1 <0>        -0.8528
     26 H2         -0.9622    1.8990    0.0260 H         1 <0>         0.1440
     27 H3          1.1320    3.1784    0.0079 H         1 <0>         0.1390
     28 H4         -0.9267   -0.5551    0.0082 H         1 <0>         0.1328
     29 H5          1.9952   -4.6246   -0.0496 H         1 <0>         0.1274
     30 H6          3.3268   -6.6925   -0.0733 H         1 <0>         0.1328
     31 H7          6.9242   -4.3988   -0.0750 H         1 <0>         0.1304
     32 H8          5.6111   -2.3190   -0.0637 H         1 <0>         0.1489
     33 H9          5.3431   -7.7980   -0.0940 H         1 <0>         0.1032
     34 H10         6.2636   -6.9902   -2.2310 H         1 <0>         0.0970
     35 H11         7.5288   -6.0840   -1.3641 H         1 <0>         0.0864
     36 H12         7.1363   -9.1124   -1.3371 H         1 <0>         0.0892
     37 H13         8.4393   -8.2272   -2.1675 H         1 <0>         0.1146
     38 H14         9.2192   -9.1234    0.0098 H         1 <0>         0.1342
     39 H15         9.2279   -7.3440    0.0105 H         1 <0>         0.1312
     40 H16         7.0761   -9.0214    1.0890 H         1 <0>         0.4279
     41 H17         7.5728   -6.1308    1.1578 H         1 <0>         0.1337
     42 H18         6.2795   -6.9686    2.0476 H         1 <0>         0.1361
     43 H19         2.7574    4.0213   -0.0036 H         1 <0>         0.4001
     44 H20         4.4368    4.0663   -0.0197 H         1 <0>         0.4072
     45 H21         8.2408   -8.2836    1.9890 H         1 <0>         0.4333
@<TRIPOS>BOND
     1    1    6 ar
     2    1    2 ar
     3    1   26 1
     4    2    3 ar
     5    2   27 1
     6    3    4 ar
     7    3   23 1
     8    4   10 1
     9    4    5 ar
    10    5    6 ar
    11    5    7 1
    12    6   28 1
    13    7    8 1
    14    7    9 1
    15    9   10 2
    16    9   11 1
    17   11   16 ar
    18   11   12 ar
    19   12   13 ar
    20   12   29 1
    21   13   14 ar
    22   13   30 1
    23   14   15 ar
    24   14   17 1
    25   15   16 ar
    26   15   31 1
    27   16   32 1
    28   17   22 1
    29   17   18 1
    30   17   33 1
    31   18   19 1
    32   18   34 1
    33   18   35 1
    34   19   20 1
    35   19   36 1
    36   19   37 1
    37   20   21 1
    38   20   38 1
    39   20   39 1
    40   21   22 1
    41   21   40 1
    42   21   45 1
    43   22   41 1
    44   22   42 1
    45   23   24 2
    46   23   25 am
    47   25   43 1
    48   25   44 1
@<TRIPOS>MOLECULE
CHEMBL470583
   54    57     0     0     0
SMALL
USER_CHARGES

@<TRIPOS>ATOM
      1 C1         -0.0020    1.7860    0.0030 C.3       1 <0>        -0.1540
      2 C2         -0.0883    0.2587    0.0264 C.3       1 <0>         0.1360
      3 C3          0.6306   -0.3239   -1.1689 C.2       1 <0>        -0.0920
      4 C4          1.3679   -1.3770   -0.7625 C.2       1 <0>        -0.0575
      5 C5          1.1825   -1.5564    0.7270 C.3       1 <0>         0.1474
      6 N1          0.6180   -0.2763    1.2135 N.3       1 <0>        -0.6341
      7 C6          0.2089   -2.7036    1.0047 C.3       1 <0>        -0.1299
      8 C7          2.5296   -1.8300    1.3988 C.3       1 <0>        -0.1580
      9 C8          2.2114   -2.2109   -1.6236 C.2       1 <0>         0.3313
     10 N2          2.3789   -2.0373   -2.9730 N.pl3     1 <0>        -0.5925
     11 H1          1.9676   -1.3516   -3.5220 H         1 <0>         0.4205
     12 C9          3.2459   -3.0247   -3.4028 C.ar      1 <0>         0.0418
     13 C10         3.7838   -3.3583   -4.6365 C.ar      1 <0>        -0.0792
     14 C11         4.6470   -4.4315   -4.7517 C.ar      1 <0>        -0.1102
     15 C12         4.9863   -5.1860   -3.6441 C.ar      1 <0>        -0.0850
     16 C13         4.4617   -4.8740   -2.3921 C.ar      1 <0>        -0.0892
     17 C14         3.5782   -3.7788   -2.2626 C.ar      1 <0>         0.1042
     18 N3          2.9286   -3.2380   -1.2187 N.2       1 <0>        -0.4369
     19 C15         4.8241   -5.6795   -1.2131 C.2       1 <0>         0.5580
     20 O1          4.3631   -5.4025   -0.1223 O.2       1 <0>        -0.5101
     21 N4          5.6666   -6.7234   -1.3432 N.am      1 <0>        -0.8552
     22 C16         0.5401    0.1764   -2.5509 C.ar      1 <0>        -0.0440
     23 C17         1.0302    1.4460   -2.8720 C.ar      1 <0>        -0.0697
     24 C18         0.9423    1.9074   -4.1683 C.ar      1 <0>        -0.1102
     25 C19         0.3707    1.1172   -5.1506 C.ar      1 <0>        -0.0663
     26 C20        -0.1170   -0.1401   -4.8405 C.ar      1 <0>        -0.1786
     27 C21        -0.0310   -0.6178   -3.5495 C.ar      1 <0>        -0.0767
     28 C22        -0.7379   -0.9921   -5.9174 C.3       1 <0>         0.5075
     29 F1         -0.7064   -0.3021   -7.1340 F         1 <0>        -0.1729
     30 F2         -0.0191   -2.1861   -6.0397 F         1 <0>        -0.1751
     31 F3         -2.0644   -1.2790   -5.5781 F         1 <0>        -0.1716
     32 C23        -1.5516   -0.1879    0.0355 C.3       1 <0>        -0.1322
     33 H2          1.0444    2.0907   -0.0112 H         1 <0>         0.0583
     34 H3         -0.5029    2.1646   -0.8880 H         1 <0>         0.0684
     35 H4         -0.4862    2.1909    0.8917 H         1 <0>         0.0745
     36 H5          1.3496    0.3512    1.5122 H         1 <0>         0.3442
     37 H6          0.6610   -3.6464    0.6966 H         1 <0>         0.0679
     38 H7         -0.0156   -2.7395    2.0707 H         1 <0>         0.0712
     39 H8         -0.7121   -2.5421    0.4446 H         1 <0>         0.0582
     40 H9          3.2012   -0.9899    1.2218 H         1 <0>         0.0482
     41 H10         2.3817   -1.9572    2.4711 H         1 <0>         0.0657
     42 H11         2.9658   -2.7378    0.9819 H         1 <0>         0.1003
     43 H12         3.5272   -2.7778   -5.5103 H         1 <0>         0.1286
     44 H13         5.0604   -4.6836   -5.7170 H         1 <0>         0.1405
     45 H14         5.6615   -6.0222   -3.7502 H         1 <0>         0.1360
     46 H15         6.0343   -6.9443   -2.2132 H         1 <0>         0.3984
     47 H16         5.9053   -7.2538   -0.5669 H         1 <0>         0.4055
     48 H17         1.4761    2.0638   -2.1066 H         1 <0>         0.1414
     49 H18         1.3200    2.8879   -4.4179 H         1 <0>         0.1451
     50 H19         0.3046    1.4840   -6.1643 H         1 <0>         0.1461
     51 H20        -0.4077   -1.6012   -3.3099 H         1 <0>         0.1381
     52 H21        -2.0828    0.2913   -0.7869 H         1 <0>         0.0590
     53 H22        -1.6018   -1.2705   -0.0813 H         1 <0>         0.0646
     54 H23        -2.0127    0.0972    0.9811 H         1 <0>         0.0740
@<TRIPOS>BOND
     1    1    2 1
     2    1   33 1
     3    1   34 1
     4    1   35 1
     5    2    6 1
     6    2    3 1
     7    2   32 1
     8    3    4 2
     9    3   22 1
    10    4    5 1
    11    4    9 1
    12    5    6 1
    13    5    7 1
    14    5    8 1
    15    6   36 1
    16    7   37 1
    17    7   38 1
    18    7   39 1
    19    8   40 1
    20    8   41 1
    21    8   42 1
    22    9   18 2
    23    9   10 1
    24   10   11 1
    25   10   12 1
    26   12   17 ar
    27   12   13 ar
    28   13   14 ar
    29   13   43 1
    30   14   15 ar
    31   14   44 1
    32   15   16 ar
    33   15   45 1
    34   16   17 ar
    35   16   19 1
    36   17   18 1
    37   19   20 2
    38   19   21 am
    39   21   46 1
    40   21   47 1
    41   22   27 ar
    42   22   23 ar
    43   23   24 ar
    44   23   48 1
    45   24   25 ar
    46   24   49 1
    47   25   26 ar
    48   25   50 1
    49   26   27 ar
    50   26   28 1
    51   27   51 1
    52   28   29 1
    53   28   30 1
    54   28   31 1
    55   32   52 1
    56   32   53 1
    57   32   54 1
@<TRIPOS>MOLECULE
CHEMBL470583__1
   54    57     0     0     0
SMALL
USER_CHARGES

@<TRIPOS>ATOM
      1 C1         -0.0020    1.7860    0.0030 C.3       1 <0>        -0.1541
      2 C2         -0.0883    0.2586    0.0263 C.3       1 <0>         0.1349
      3 C3          0.6307   -0.3239   -1.1690 C.2       1 <0>        -0.0823
      4 C4          1.3677   -1.3766   -0.7628 C.2       1 <0>        -0.0675
      5 C5          1.1826   -1.5563    0.7266 C.3       1 <0>         0.1472
      6 N1          0.6180   -0.2763    1.2135 N.3       1 <0>        -0.6340
      7 C6          0.2093   -2.7037    1.0042 C.3       1 <0>        -0.1301
      8 C7          2.5299   -1.8298    1.3981 C.3       1 <0>        -0.1557
      9 C8          2.2116   -2.2107   -1.6247 C.2       1 <0>         0.3296
     10 N2          2.9228   -3.2397   -1.2214 N.2       1 <0>        -0.4605
     11 C9          3.5794   -3.7776   -2.2770 C.ar      1 <0>         0.0386
     12 C10         4.4541   -4.8615   -2.4104 C.ar      1 <0>        -0.0276
     13 C11         4.9788   -5.1786   -3.6446 C.ar      1 <0>        -0.1396
     14 C12         4.6514   -4.4353   -4.7644 C.ar      1 <0>        -0.0575
     15 C13         3.7819   -3.3499   -4.6592 C.ar      1 <0>        -0.1383
     16 C14         3.2411   -3.0165   -3.4100 C.ar      1 <0>         0.1064
     17 N3          2.3747   -2.0396   -2.9769 N.pl3     1 <0>        -0.5771
     18 C15         3.4339   -2.5585   -5.8544 C.2       1 <0>         0.5658
     19 O1          2.6754   -1.6130   -5.7578 O.2       1 <0>        -0.5424
     20 N4          3.9567   -2.8833   -7.0534 N.am      1 <0>        -0.8473
     21 C16         0.5401    0.1765   -2.5511 C.ar      1 <0>        -0.0520
     22 C17         1.0300    1.4461   -2.8721 C.ar      1 <0>        -0.0728
     23 C18         0.9416    1.9077   -4.1684 C.ar      1 <0>        -0.1109
     24 C19         0.3692    1.1179   -5.1505 C.ar      1 <0>        -0.0578
     25 C20        -0.1179   -0.1396   -4.8404 C.ar      1 <0>        -0.1581
     26 C21        -0.0310   -0.6177   -3.5496 C.ar      1 <0>        -0.0738
     27 C22        -0.7393   -0.9914   -5.9172 C.3       1 <0>         0.5084
     28 F1         -0.7088   -0.3010   -7.1336 F         1 <0>        -0.1751
     29 F2         -0.0203   -2.1852   -6.0403 F         1 <0>        -0.1680
     30 F3         -2.0655   -1.2788   -5.5772 F         1 <0>        -0.1775
     31 C23        -1.5516   -0.1879    0.0354 C.3       1 <0>        -0.1319
     32 H1          1.0445    2.0907   -0.0113 H         1 <0>         0.0583
     33 H2         -0.5028    2.1647   -0.8880 H         1 <0>         0.0696
     34 H3         -0.4862    2.1909    0.8917 H         1 <0>         0.0742
     35 H4          1.3495    0.3512    1.5123 H         1 <0>         0.3441
     36 H5          0.6614   -3.6463    0.6958 H         1 <0>         0.0657
     37 H6         -0.0151   -2.7399    2.0703 H         1 <0>         0.0712
     38 H7         -0.7119   -2.5422    0.4444 H         1 <0>         0.0596
     39 H8          3.2013   -0.9895    1.2212 H         1 <0>         0.0503
     40 H9          2.3822   -1.9573    2.4705 H         1 <0>         0.0666
     41 H10         2.9662   -2.7375    0.9810 H         1 <0>         0.0924
     42 H11         4.7187   -5.4504   -1.5446 H         1 <0>         0.1388
     43 H12         5.6535   -6.0167   -3.7386 H         1 <0>         0.1403
     44 H13         5.0714   -4.6965   -5.7245 H         1 <0>         0.1354
     45 H14         4.5618   -3.6375   -7.1304 H         1 <0>         0.4016
     46 H15         3.7279   -2.3628   -7.8393 H         1 <0>         0.4069
     47 H16         1.4762    2.0637   -2.1068 H         1 <0>         0.1384
     48 H17         1.3195    2.8881   -4.4179 H         1 <0>         0.1421
     49 H18         0.3020    1.4852   -6.1639 H         1 <0>         0.1426
     50 H19        -0.4072   -1.6013   -3.3101 H         1 <0>         0.1328
     51 H20        -2.0828    0.2913   -0.7870 H         1 <0>         0.0600
     52 H21        -1.6018   -1.2705   -0.0814 H         1 <0>         0.0641
     53 H22        -2.0127    0.0973    0.9809 H         1 <0>         0.0739
     54 H23         1.9586   -1.3557   -3.5247 H         1 <0>         0.4321
@<TRIPOS>BOND
     1    1    2 1
     2    1   32 1
     3    1   33 1
     4    1   34 1
     5    2    6 1
     6    2    3 1
     7    2   31 1
     8    3    4 2
     9    3   21 1
    10    4    5 1
    11    4    9 1
    12    5    6 1
    13    5    7 1
    14    5    8 1
    15    6   35 1
    16    7   36 1
    17    7   37 1
    18    7   38 1
    19    8   39 1
    20    8   40 1
    21    8   41 1
    22    9   17 1
    23    9   10 2
    24   10   11 1
    25   11   16 ar
    26   11   12 ar
    27   12   13 ar
    28   12   42 1
    29   13   14 ar
    30   13   43 1
    31   14   15 ar
    32   14   44 1
    33   15   16 ar
    34   15   18 1
    35   16   17 1
    36   17   54 1
    37   18   19 2
    38   18   20 am
    39   20   45 1
    40   20   46 1
    41   21   26 ar
    42   21   22 ar
    43   22   23 ar
    44   22   47 1
    45   23   24 ar
    46   23   48 1
    47   24   25 ar
    48   24   49 1
    49   25   26 ar
    50   25   27 1
    51   26   50 1
    52   27   28 1
    53   27   29 1
    54   27   30 1
    55   31   51 1
    56   31   52 1
    57   31   53 1
@<TRIPOS>MOLECULE
CHEMBL185742
   51    54     0     0     0
SMALL
USER_CHARGES

@<TRIPOS>ATOM
      1 C1         -0.0166    1.3734    0.0096 C.ar      1 <0>        -0.1280
      2 C2         -1.2219    2.0634    0.0190 C.ar      1 <0>        -0.0696
      3 C3         -2.4214    1.3879    0.0210 C.ar      1 <0>        -0.1090
      4 C4         -2.4286   -0.0085    0.0134 C.ar      1 <0>         0.1440
      5 C5         -1.2010   -0.7070    0.0038 C.ar      1 <0>        -0.1942
      6 C6          0.0021   -0.0041    0.0020 C.ar      1 <0>        -0.0398
      7 C7         -1.2432   -2.1768   -0.0036 C.2       1 <0>         0.5499
      8 N1         -2.4621   -2.7650   -0.0006 N.am      1 <0>        -0.6535
      9 C8         -3.5932   -2.0126    0.0088 C.2       1 <0>         0.3867
     10 N2         -3.5871   -0.7142    0.0154 N.2       1 <0>        -0.5182
     11 C9         -4.9233   -2.7212    0.0111 C.3       1 <0>        -0.0715
     12 C10        -6.0516   -1.6879    0.0221 C.3       1 <0>        -0.1328
     13 C11        -7.4019   -2.4074    0.0245 C.3       1 <0>        -0.0127
     14 N3         -8.4853   -1.4153    0.0349 N.4       1 <0>        -0.3858
     15 C12        -9.7814   -2.1028    0.1464 C.3       1 <0>        -0.0030
     16 C13       -10.8671   -1.0579    0.4165 C.3       1 <0>        -0.1134
     17 C14       -10.7460    0.0630   -0.5789 C.2       1 <0>        -0.0554
     18 C15        -9.6637    0.2453   -1.3064 C.2       1 <0>        -0.1791
     19 C16        -8.4586   -0.6458   -1.2144 C.3       1 <0>         0.0315
     20 C17       -11.8816    0.9919   -0.7469 C.ar      1 <0>        -0.0538
     21 C18       -12.2633    1.8260    0.3070 C.ar      1 <0>        -0.1001
     22 C19       -13.3176    2.6887    0.1515 C.ar      1 <0>        -0.0676
     23 C20       -14.0107    2.7336   -1.0617 C.ar      1 <0>        -0.0034
     24 C21       -13.6284    1.8989   -2.1159 C.ar      1 <0>        -0.0673
     25 C22       -12.5703    1.0406   -1.9615 C.ar      1 <0>        -0.0990
     26 C23       -15.1122    3.6341   -1.2244 C.1       1 <0>         0.2343
     27 N4        -15.9860    4.3485   -1.3534 N.1       1 <0>        -0.3884
     28 O1         -0.2217   -2.8387   -0.0124 O.2       1 <0>        -0.4958
     29 H1          0.9140    1.9215    0.0037 H         1 <0>         0.1393
     30 H2         -1.2181    3.1434    0.0253 H         1 <0>         0.1389
     31 H3         -3.3523    1.9353    0.0287 H         1 <0>         0.1389
     32 H4          0.9423   -0.5352   -0.0102 H         1 <0>         0.1419
     33 H5         -5.0065   -3.3406   -0.8819 H         1 <0>         0.1095
     34 H6         -4.9981   -3.3504    0.8981 H         1 <0>         0.1097
     35 H7         -5.9684   -1.0685    0.9151 H         1 <0>         0.1012
     36 H8         -5.9767   -1.0587   -0.8648 H         1 <0>         0.1009
     37 H9         -7.4851   -3.0268   -0.8685 H         1 <0>         0.1328
     38 H10        -7.4768   -3.0365    0.9114 H         1 <0>         0.1347
     39 H11        -9.9999   -2.6250   -0.7851 H         1 <0>         0.1339
     40 H12        -9.7475   -2.8164    0.9696 H         1 <0>         0.1384
     41 H13       -11.8489   -1.5219    0.3232 H         1 <0>         0.1271
     42 H14       -10.7472   -0.6623    1.4251 H         1 <0>         0.1082
     43 H15        -9.6417    1.0726   -2.0002 H         1 <0>         0.1531
     44 H16        -7.5558   -0.0356   -1.2428 H         1 <0>         0.1448
     45 H17        -8.4530   -1.3326   -2.0608 H         1 <0>         0.1402
     46 H18       -11.7281    1.7909    1.2444 H         1 <0>         0.1355
     47 H19       -13.6129    3.3331    0.9664 H         1 <0>         0.1407
     48 H20       -14.1635    1.9334   -3.0534 H         1 <0>         0.1410
     49 H21       -12.2721    0.3989   -2.7773 H         1 <0>         0.1370
     50 H22        -2.5287   -3.7327   -0.0056 H         1 <0>         0.4202
     51 H23        -8.3641   -0.7913    0.8185 H         1 <0>         0.4273
@<TRIPOS>BOND
     1    1    6 ar
     2    1   29 1
     3    1    2 ar
     4    2   30 1
     5    2    3 ar
     6    3   31 1
     7    3    4 ar
     8    4    5 ar
     9    4   10 1
    10    5    7 1
    11    5    6 ar
    12    6   32 1
    13    7   28 2
    14    7    8 am
    15    8    9 1
    16    8   50 1
    17    9   10 2
    18    9   11 1
    19   11   12 1
    20   11   33 1
    21   11   34 1
    22   12   13 1
    23   12   35 1
    24   12   36 1
    25   13   14 1
    26   13   37 1
    27   13   38 1
    28   14   19 1
    29   14   15 1
    30   14   51 1
    31   15   16 1
    32   15   39 1
    33   15   40 1
    34   16   17 1
    35   16   41 1
    36   16   42 1
    37   17   18 2
    38   17   20 1
    39   18   19 1
    40   18   43 1
    41   19   44 1
    42   19   45 1
    43   20   25 ar
    44   20   21 ar
    45   21   22 ar
    46   21   46 1
    47   22   23 ar
    48   22   47 1
    49   23   24 ar
    50   23   26 1
    51   24   25 ar
    52   24   48 1
    53   25   49 1
    54   26   27 3
@<TRIPOS>MOLECULE
CHEMBL250851
   55    59     0     0     0
SMALL
USER_CHARGES

@<TRIPOS>ATOM
      1 C1         -0.0125    1.5386    0.0152 C.3       1 <0>        -0.1063
      2 C2         -0.0081    0.0316    0.0047 C.ar      1 <0>        -0.0738
      3 C3         -0.0131   -0.6514   -1.1904 C.ar      1 <0>        -0.0766
      4 C4         -0.0096   -2.0399   -1.2163 C.ar      1 <0>        -0.1306
      5 C5         -0.0011   -2.7633   -0.0433 C.ar      1 <0>        -0.0476
      6 C6          0.0046   -2.0928    1.1776 C.ar      1 <0>        -0.1954
      7 C7          0.0069   -0.6790    1.2086 C.ar      1 <0>         0.1537
      8 N1          0.0173   -0.0472    2.3986 N.2       1 <0>        -0.4988
      9 C8          0.0310   -0.7094    3.5289 C.2       1 <0>         0.4413
     10 N2          0.0357   -2.0776    3.5924 N.am      1 <0>        -0.6523
     11 H1          0.0459   -2.5202    4.4555 H         1 <0>         0.4157
     12 C9          0.0133   -2.8157    2.4581 C.2       1 <0>         0.5535
     13 O1          0.0159   -4.0324    2.4963 O.2       1 <0>        -0.5092
     14 C10         0.0422    0.0514    4.7877 C.2       1 <0>        -0.0941
     15 C11         0.0621   -0.4929    5.9968 C.2       1 <0>        -0.0995
     16 C12         0.0686    0.5758    7.0652 C.3       1 <0>         0.1047
     17 C13         0.4765    1.8712    6.3269 C.3       1 <0>        -0.1163
     18 C14         0.0392    1.5597    4.8793 C.3       1 <0>        -0.0703
     19 N3          1.0512    0.2505    8.1076 N.3       1 <0>        -0.5263
     20 C15         0.7247   -1.0250    8.7592 C.3       1 <0>         0.0350
     21 C16         1.8632   -1.4166    9.7072 C.3       1 <0>         0.1252
     22 N4          2.1131   -0.2952   10.6255 N.pl3     1 <0>        -0.6280
     23 C17         2.3133    1.0437   10.0506 C.3       1 <0>         0.1243
     24 C18         1.1571    1.3384    9.0891 C.3       1 <0>         0.0379
     25 C19         2.1587   -0.4965   12.0076 C.ar      1 <0>         0.2262
     26 C20         2.0918   -1.7834   12.5259 C.ar      1 <0>        -0.1897
     27 C21         2.1375   -1.9794   13.8922 C.ar      1 <0>        -0.0584
     28 C22         2.2494   -0.8951   14.7447 C.ar      1 <0>        -0.0946
     29 C23         2.3163    0.3881   14.2311 C.ar      1 <0>        -0.0584
     30 C24         2.2768    0.5896   12.8653 C.ar      1 <0>        -0.1900
     31 Cl1         2.3055   -1.1451   16.4617 Cl        1 <0>        -0.0794
     32 H2          1.0140    1.9050    0.0068 H         1 <0>         0.0725
     33 H3         -0.5369    1.9066   -0.8666 H         1 <0>         0.0664
     34 H4         -0.5178    1.8941    0.9132 H         1 <0>         0.0787
     35 H5         -0.0202   -0.1007   -2.1193 H         1 <0>         0.1358
     36 H6         -0.0140   -2.5574   -2.1643 H         1 <0>         0.1354
     37 H7          0.0009   -3.8430   -0.0706 H         1 <0>         0.1384
     38 H8          0.0726   -1.5551    6.1914 H         1 <0>         0.1312
     39 H9         -0.9252    0.6837    7.4998 H         1 <0>         0.0669
     40 H10        -0.0615    2.7323    6.7234 H         1 <0>         0.0802
     41 H11         1.5539    2.0278    6.3797 H         1 <0>         0.0887
     42 H12         0.7476    1.9844    4.1680 H         1 <0>         0.0886
     43 H13        -0.9625    1.9488    4.6965 H         1 <0>         0.0855
     44 H14        -0.2000   -0.9176    9.3261 H         1 <0>         0.0421
     45 H15         0.5997   -1.7988    8.0017 H         1 <0>         0.0868
     46 H16         1.5771   -2.3002   10.2776 H         1 <0>         0.0876
     47 H17         2.7643   -1.6255    9.1305 H         1 <0>         0.0728
     48 H18         2.3248    1.7866   10.8481 H         1 <0>         0.0886
     49 H19         3.2577    1.0713    9.5070 H         1 <0>         0.0733
     50 H20         1.3456    2.2787    8.5709 H         1 <0>         0.0919
     51 H21         0.2263    1.4129    9.6514 H         1 <0>         0.0413
     52 H22         2.0037   -2.6299   11.8610 H         1 <0>         0.1306
     53 H23         2.0855   -2.9798   14.2957 H         1 <0>         0.1317
     54 H24         2.4036    1.2325   14.8987 H         1 <0>         0.1318
     55 H25         2.3335    1.5910   12.4648 H         1 <0>         0.1311
@<TRIPOS>BOND
     1    1    2 1
     2    1   32 1
     3    1   33 1
     4    1   34 1
     5    2    7 ar
     6    2    3 ar
     7    3    4 ar
     8    3   35 1
     9    4    5 ar
    10    4   36 1
    11    5    6 ar
    12    5   37 1
    13    6   12 1
    14    6    7 ar
    15    7    8 1
    16    8    9 2
    17    9   10 1
    18    9   14 1
    19   10   11 1
    20   10   12 am
    21   12   13 2
    22   14   18 1
    23   14   15 2
    24   15   16 1
    25   15   38 1
    26   16   17 1
    27   16   19 1
    28   16   39 1
    29   17   18 1
    30   17   40 1
    31   17   41 1
    32   18   42 1
    33   18   43 1
    34   19   24 1
    35   19   20 1
    36   20   21 1
    37   20   44 1
    38   20   45 1
    39   21   22 1
    40   21   46 1
    41   21   47 1
    42   22   23 1
    43   22   25 1
    44   23   24 1
    45   23   48 1
    46   23   49 1
    47   24   50 1
    48   24   51 1
    49   25   30 ar
    50   25   26 ar
    51   26   27 ar
    52   26   52 1
    53   27   28 ar
    54   27   53 1
    55   28   29 ar
    56   28   31 1
    57   29   30 ar
    58   29   54 1
    59   30   55 1
@<TRIPOS>MOLECULE
CHEMBL250851__1
   56    60     0     0     0
SMALL
USER_CHARGES

@<TRIPOS>ATOM
      1 C1         -0.0197    1.4782    0.0064 C.3       1 <0>        -0.1101
      2 C2          0.0184   -0.0283   -0.0016 C.ar      1 <0>        -0.0583
      3 C3          0.0323   -0.7133   -1.1955 C.ar      1 <0>        -0.0779
      4 C4          0.0668   -2.1013   -1.2192 C.ar      1 <0>        -0.1101
      5 C5          0.0879   -2.8225   -0.0450 C.ar      1 <0>        -0.0518
      6 C6          0.0748   -2.1500    1.1749 C.ar      1 <0>        -0.1790
      7 C7          0.0455   -0.7366    1.2035 C.ar      1 <0>         0.1301
      8 N1          0.0381   -0.1027    2.3925 N.2       1 <0>        -0.4670
      9 C8          0.0630   -0.7627    3.5239 C.2       1 <0>         0.3987
     10 N2          0.0981   -2.1303    3.5897 N.am      1 <0>        -0.6524
     11 H1          0.1155   -2.5712    4.4535 H         1 <0>         0.4129
     12 C9          0.0956   -2.8706    2.4566 C.2       1 <0>         0.5534
     13 O1          0.1252   -4.0868    2.4968 O.2       1 <0>        -0.4965
     14 C10         0.0534    0.0002    4.7815 C.2       1 <0>        -0.0003
     15 C11         0.0817   -0.5415    5.9915 C.2       1 <0>        -0.2092
     16 C12         0.0611    0.5287    7.0581 C.3       1 <0>         0.0627
     17 C13         0.4422    1.8317    6.3190 C.3       1 <0>        -0.1378
     18 C14         0.0165    1.5082    4.8705 C.3       1 <0>        -0.0876
     19 N3          1.0474    0.2271    8.1041 N.4       1 <0>        -0.3787
     20 C15         0.7130   -1.0564    8.7342 C.3       1 <0>        -0.0262
     21 C16         1.8032   -1.4274    9.7450 C.3       1 <0>         0.0993
     22 N4          1.9631   -0.3108   10.6893 N.pl3     1 <0>        -0.6428
     23 C17         2.1400    1.0422   10.1395 C.3       1 <0>         0.0999
     24 C18         1.0339    1.2966    9.1101 C.3       1 <0>        -0.0243
     25 C19         1.9469   -0.5290   12.0695 C.ar      1 <0>         0.2017
     26 C20         1.6668   -1.7938   12.5707 C.ar      1 <0>        -0.1750
     27 C21         1.6519   -2.0068   13.9351 C.ar      1 <0>        -0.0606
     28 C22         1.9154   -0.9614   14.8028 C.ar      1 <0>        -0.0741
     29 C23         2.1948    0.2996   14.3063 C.ar      1 <0>        -0.0605
     30 C24         2.2166    0.5170   12.9426 C.ar      1 <0>        -0.1740
     31 Cl1         1.8947   -1.2325   16.5174 Cl        1 <0>        -0.0592
     32 H2          0.9985    1.8674    0.0005 H         1 <0>         0.0761
     33 H3         -0.5494    1.8329   -0.8777 H         1 <0>         0.0724
     34 H4         -0.5356    1.8238    0.9022 H         1 <0>         0.0778
     35 H5          0.0158   -0.1643   -2.1255 H         1 <0>         0.1421
     36 H6          0.0769   -2.6203   -2.1663 H         1 <0>         0.1423
     37 H7          0.1140   -3.9019   -0.0704 H         1 <0>         0.1437
     38 H8          0.1153   -1.6030    6.1880 H         1 <0>         0.1537
     39 H9         -0.9362    0.6152    7.4895 H         1 <0>         0.1546
     40 H10        -0.1160    2.6812    6.7123 H         1 <0>         0.1149
     41 H11         1.5157    2.0124    6.3748 H         1 <0>         0.0985
     42 H12         0.7175    1.9474    4.1607 H         1 <0>         0.1112
     43 H13        -0.9930    1.8746    4.6840 H         1 <0>         0.1118
     44 H14        -0.2447   -0.9706    9.2477 H         1 <0>         0.1354
     45 H15         0.6476   -1.8305    7.9697 H         1 <0>         0.1398
     46 H16         1.5095   -2.3263   10.2870 H         1 <0>         0.1280
     47 H17         2.7434   -1.6022    9.2220 H         1 <0>         0.0899
     48 H18         2.0690    1.7760   10.9424 H         1 <0>         0.1282
     49 H19         3.1142    1.1167    9.6563 H         1 <0>         0.0897
     50 H20         1.2050    2.2564    8.6225 H         1 <0>         0.1432
     51 H21         0.0665    1.3112    9.6122 H         1 <0>         0.1352
     52 H22         1.4604   -2.6098   11.8940 H         1 <0>         0.1321
     53 H23         1.4342   -2.9900   14.3254 H         1 <0>         0.1394
     54 H24         2.4000    1.1137   14.9857 H         1 <0>         0.1396
     55 H25         2.4391    1.5004   12.5555 H         1 <0>         0.1327
     56 H26         1.9661    0.1670    7.6912 H         1 <0>         0.4227
@<TRIPOS>BOND
     1    1    2 1
     2    1   32 1
     3    1   33 1
     4    1   34 1
     5    2    7 ar
     6    2    3 ar
     7    3    4 ar
     8    3   35 1
     9    4    5 ar
    10    4   36 1
    11    5    6 ar
    12    5   37 1
    13    6   12 1
    14    6    7 ar
    15    7    8 1
    16    8    9 2
    17    9   10 1
    18    9   14 1
    19   10   11 1
    20   10   12 am
    21   12   13 2
    22   14   18 1
    23   14   15 2
    24   15   16 1
    25   15   38 1
    26   16   17 1
    27   16   19 1
    28   16   39 1
    29   17   18 1
    30   17   40 1
    31   17   41 1
    32   18   42 1
    33   18   43 1
    34   19   24 1
    35   19   20 1
    36   19   56 1
    37   20   21 1
    38   20   44 1
    39   20   45 1
    40   21   22 1
    41   21   46 1
    42   21   47 1
    43   22   23 1
    44   22   25 1
    45   23   24 1
    46   23   48 1
    47   23   49 1
    48   24   50 1
    49   24   51 1
    50   25   30 ar
    51   25   26 ar
    52   26   27 ar
    53   26   52 1
    54   27   28 ar
    55   27   53 1
    56   28   29 ar
    57   28   31 1
    58   29   30 ar
    59   29   54 1
    60   30   55 1
@<TRIPOS>MOLECULE
CHEMBL250851__2
   55    59     0     0     0
SMALL
USER_CHARGES

@<TRIPOS>ATOM
      1 C1         -0.0232    1.5245    0.0133 C.3       1 <0>        -0.1062
      2 C2          0.0155    0.0180    0.0051 C.ar      1 <0>        -0.0738
      3 C3          0.0295   -0.6668   -1.1888 C.ar      1 <0>        -0.0766
      4 C4          0.0646   -2.0549   -1.2126 C.ar      1 <0>        -0.1306
      5 C5          0.0862   -2.7761   -0.0384 C.ar      1 <0>        -0.0476
      6 C6          0.0731   -2.1038    1.1815 C.ar      1 <0>        -0.1955
      7 C7          0.0432   -0.6903    1.2102 C.ar      1 <0>         0.1538
      8 N1          0.0357   -0.0565    2.3992 N.2       1 <0>        -0.4989
      9 C8          0.0611   -0.7165    3.5306 C.2       1 <0>         0.4414
     10 N2          0.0968   -2.0842    3.5963 N.am      1 <0>        -0.6524
     11 H1          0.1146   -2.5251    4.4601 H         1 <0>         0.4157
     12 C9          0.0945   -2.8244    2.4631 C.2       1 <0>         0.5535
     13 O1          0.1246   -4.0406    2.5033 O.2       1 <0>        -0.5092
     14 C10         0.0514    0.0462    4.7882 C.2       1 <0>        -0.0945
     15 C11         0.0801   -0.4956    5.9983 C.2       1 <0>        -0.0989
     16 C12         0.0592    0.5746    7.0649 C.3       1 <0>         0.1046
     17 C13        -0.4136    1.8523    6.3346 C.3       1 <0>        -0.1162
     18 C14         0.0138    1.5543    4.8774 C.3       1 <0>        -0.0702
     19 N3         -0.8858    0.2156    8.1308 N.3       1 <0>        -0.5265
     20 C15        -1.0195    1.3067    9.1053 C.3       1 <0>         0.0379
     21 C16        -2.1410    0.9698   10.0936 C.3       1 <0>         0.1243
     22 N4         -1.8694   -0.3536   10.6751 N.pl3     1 <0>        -0.6279
     23 C17        -1.5892   -1.4711    9.7608 C.3       1 <0>         0.1251
     24 C18        -0.4894   -1.0381    8.7856 C.3       1 <0>         0.0352
     25 C19        -1.8770   -0.5441   12.0594 C.ar      1 <0>         0.2262
     26 C20        -2.0313    0.5428   12.9105 C.ar      1 <0>        -0.1900
     27 C21        -2.0389    0.3516   14.2782 C.ar      1 <0>        -0.0584
     28 C22        -1.8925   -0.9213   14.8010 C.ar      1 <0>        -0.0946
     29 C23        -1.7387   -2.0059   13.9555 C.ar      1 <0>        -0.0584
     30 C24        -1.7361   -1.8213   12.5868 C.ar      1 <0>        -0.1898
     31 Cl1        -1.9014   -1.1578   16.5208 Cl        1 <0>        -0.0794
     32 H2          0.9947    1.9141    0.0072 H         1 <0>         0.0722
     33 H3         -0.5533    1.8791   -0.8707 H         1 <0>         0.0665
     34 H4         -0.5391    1.8698    0.9092 H         1 <0>         0.0788
     35 H5          0.0126   -0.1178   -2.1187 H         1 <0>         0.1357
     36 H6          0.0748   -2.5738   -2.1597 H         1 <0>         0.1354
     37 H7          0.1128   -3.8555   -0.0639 H         1 <0>         0.1384
     38 H8          0.1135   -1.5571    6.1946 H         1 <0>         0.1311
     39 H9          1.0582    0.7202    7.4758 H         1 <0>         0.0668
     40 H10        -1.4945    1.9691    6.4126 H         1 <0>         0.0893
     41 H11         0.1013    2.7336    6.7170 H         1 <0>         0.0797
     42 H12         1.0007    1.9709    4.6758 H         1 <0>         0.0863
     43 H13        -0.7190    1.9574    4.1784 H         1 <0>         0.0880
     44 H14        -0.0814    1.4274    9.6470 H         1 <0>         0.0413
     45 H15        -1.2605    2.2329    8.5836 H         1 <0>         0.0920
     46 H16        -2.1688    1.7187   10.8851 H         1 <0>         0.0886
     47 H17        -3.0969    0.9506    9.5701 H         1 <0>         0.0734
     48 H18        -1.2522   -2.3360   10.3323 H         1 <0>         0.0877
     49 H19        -2.4920   -1.7250    9.2053 H         1 <0>         0.0728
     50 H20        -0.3459   -1.8125    8.0320 H         1 <0>         0.0868
     51 H21         0.4413   -0.8847    9.3318 H         1 <0>         0.0421
     52 H22        -2.1448    1.5365   12.5030 H         1 <0>         0.1311
     53 H23        -2.1587    1.1963   14.9404 H         1 <0>         0.1318
     54 H24        -1.6247   -2.9982   14.3663 H         1 <0>         0.1317
     55 H25        -1.6205   -2.6687   11.9273 H         1 <0>         0.1306
@<TRIPOS>BOND
     1    1    2 1
     2    1   32 1
     3    1   33 1
     4    1   34 1
     5    2    7 ar
     6    2    3 ar
     7    3    4 ar
     8    3   35 1
     9    4    5 ar
    10    4   36 1
    11    5    6 ar
    12    5   37 1
    13    6   12 1
    14    6    7 ar
    15    7    8 1
    16    8    9 2
    17    9   10 1
    18    9   14 1
    19   10   11 1
    20   10   12 am
    21   12   13 2
    22   14   18 1
    23   14   15 2
    24   15   16 1
    25   15   38 1
    26   16   17 1
    27   16   19 1
    28   16   39 1
    29   17   18 1
    30   17   40 1
    31   17   41 1
    32   18   42 1
    33   18   43 1
    34   19   24 1
    35   19   20 1
    36   20   21 1
    37   20   44 1
    38   20   45 1
    39   21   22 1
    40   21   46 1
    41   21   47 1
    42   22   23 1
    43   22   25 1
    44   23   24 1
    45   23   48 1
    46   23   49 1
    47   24   50 1
    48   24   51 1
    49   25   30 ar
    50   25   26 ar
    51   26   27 ar
    52   26   52 1
    53   27   28 ar
    54   27   53 1
    55   28   29 ar
    56   28   31 1
    57   29   30 ar
    58   29   54 1
    59   30   55 1
@<TRIPOS>MOLECULE
CHEMBL250851__3
   56    60     0     0     0
SMALL
USER_CHARGES

@<TRIPOS>ATOM
      1 C1         -0.0213    1.5277    0.0142 C.3       1 <0>        -0.1099
      2 C2          0.0167    0.0212    0.0053 C.ar      1 <0>        -0.0583
      3 C3          0.0305   -0.6630   -1.1891 C.ar      1 <0>        -0.0779
      4 C4          0.0651   -2.0511   -1.2136 C.ar      1 <0>        -0.1101
      5 C5          0.0862   -2.7730   -0.0398 C.ar      1 <0>        -0.0518
      6 C6          0.0732   -2.1013    1.1805 C.ar      1 <0>        -0.1790
      7 C7          0.0439   -0.6878    1.2099 C.ar      1 <0>         0.1301
      8 N1          0.0367   -0.0547    2.3993 N.2       1 <0>        -0.4671
      9 C8          0.0617   -0.7153    3.5304 C.2       1 <0>         0.3986
     10 N2          0.0967   -2.0830    3.5953 N.am      1 <0>        -0.6525
     11 H1          0.1142   -2.5244    4.4589 H         1 <0>         0.4129
     12 C9          0.0942   -2.8226    2.4617 C.2       1 <0>         0.5534
     13 O1          0.1238   -4.0388    2.5012 O.2       1 <0>        -0.4965
     14 C10         0.0521    0.0468    4.7884 C.2       1 <0>        -0.0007
     15 C11         0.0805   -0.4957    5.9981 C.2       1 <0>        -0.2090
     16 C12         0.0599    0.5739    7.0654 C.3       1 <0>         0.0625
     17 C13        -0.4122    1.8522    6.3357 C.3       1 <0>        -0.1379
     18 C14         0.0152    1.5548    4.8783 C.3       1 <0>        -0.0870
     19 N3         -0.8854    0.2148    8.1309 N.4       1 <0>        -0.3788
     20 C15        -0.9223    1.2882    9.1322 C.3       1 <0>        -0.0248
     21 C16        -1.9904    0.9683   10.1832 C.3       1 <0>         0.0992
     22 N4         -1.7165   -0.3676   10.7350 N.pl3     1 <0>        -0.6428
     23 C17        -1.5024   -1.4764    9.7922 C.3       1 <0>         0.0998
     24 C18        -0.4573   -1.0412    8.7597 C.3       1 <0>        -0.0256
     25 C19        -1.6607   -0.5772   12.1154 C.ar      1 <0>         0.2017
     26 C20        -1.7533    0.5002   12.9871 C.ar      1 <0>        -0.1748
     27 C21        -1.6983    0.2900   14.3510 C.ar      1 <0>        -0.0606
     28 C22        -1.5508   -0.9925   14.8494 C.ar      1 <0>        -0.0742
     29 C23        -1.4584   -2.0678   13.9832 C.ar      1 <0>        -0.0605
     30 C24        -1.5185   -1.8640   12.6186 C.ar      1 <0>        -0.1742
     31 Cl1        -1.4810   -1.2529   16.5643 Cl        1 <0>        -0.0591
     32 H2          0.9968    1.9169    0.0085 H         1 <0>         0.0766
     33 H3         -0.5511    1.8830   -0.8696 H         1 <0>         0.0722
     34 H4         -0.5372    1.8728    0.9103 H         1 <0>         0.0773
     35 H5          0.0140   -0.1135   -2.1187 H         1 <0>         0.1421
     36 H6          0.0751   -2.5695   -2.1609 H         1 <0>         0.1423
     37 H7          0.1123   -3.8523   -0.0659 H         1 <0>         0.1437
     38 H8          0.1134   -1.5573    6.1939 H         1 <0>         0.1537
     39 H9          1.0590    0.7189    7.4764 H         1 <0>         0.1545
     40 H10        -1.4931    1.9695    6.4136 H         1 <0>         0.0990
     41 H11         0.1031    2.7331    6.7186 H         1 <0>         0.1145
     42 H12         1.0023    1.9711    4.6771 H         1 <0>         0.1125
     43 H13        -0.7174    1.9587    4.1795 H         1 <0>         0.1106
     44 H14         0.0513    1.3676    9.6159 H         1 <0>         0.1352
     45 H15        -1.1638    2.2324    8.6442 H         1 <0>         0.1432
     46 H16        -1.9520    1.7093   10.9817 H         1 <0>         0.1285
     47 H17        -2.9762    0.9775    9.7181 H         1 <0>         0.0900
     48 H18        -1.1414   -2.3517   10.3322 H         1 <0>         0.1276
     49 H19        -2.4389   -1.7142    9.2877 H         1 <0>         0.0897
     50 H20        -0.3563   -1.8134    7.9971 H         1 <0>         0.1398
     51 H21         0.5022   -0.8913    9.2547 H         1 <0>         0.1354
     52 H22        -1.8677    1.5014   12.5987 H         1 <0>         0.1325
     53 H23        -1.7702    1.1274   15.0292 H         1 <0>         0.1395
     54 H24        -1.3433   -3.0676   14.3749 H         1 <0>         0.1395
     55 H25        -1.4507   -2.7040   11.9432 H         1 <0>         0.1323
     56 H26        -1.8060    0.0950    7.7358 H         1 <0>         0.4227
@<TRIPOS>BOND
     1    1    2 1
     2    1   32 1
     3    1   33 1
     4    1   34 1
     5    2    7 ar
     6    2    3 ar
     7    3    4 ar
     8    3   35 1
     9    4    5 ar
    10    4   36 1
    11    5    6 ar
    12    5   37 1
    13    6   12 1
    14    6    7 ar
    15    7    8 1
    16    8    9 2
    17    9   10 1
    18    9   14 1
    19   10   11 1
    20   10   12 am
    21   12   13 2
    22   14   18 1
    23   14   15 2
    24   15   16 1
    25   15   38 1
    26   16   17 1
    27   16   19 1
    28   16   39 1
    29   17   18 1
    30   17   40 1
    31   17   41 1
    32   18   42 1
    33   18   43 1
    34   19   24 1
    35   19   20 1
    36   19   56 1
    37   20   21 1
    38   20   44 1
    39   20   45 1
    40   21   22 1
    41   21   46 1
    42   21   47 1
    43   22   23 1
    44   22   25 1
    45   23   24 1
    46   23   48 1
    47   23   49 1
    48   24   50 1
    49   24   51 1
    50   25   30 ar
    51   25   26 ar
    52   26   27 ar
    53   26   52 1
    54   27   28 ar
    55   27   53 1
    56   28   29 ar
    57   28   31 1
    58   29   30 ar
    59   29   54 1
    60   30   55 1
@<TRIPOS>MOLECULE
CHEMBL108840
   53    56     0     0     0
SMALL
USER_CHARGES

@<TRIPOS>ATOM
      1 C1         -0.0167    1.3823    0.0096 C.ar      1 <0>        -0.1117
      2 C2          1.1982    2.0517    0.0016 C.ar      1 <0>        -0.1088
      3 C3          2.3665    1.2856   -0.0136 C.ar      1 <0>         0.1003
      4 N1          2.2825   -0.0396   -0.0199 N.ar      1 <0>        -0.2298
      5 N2          1.1535   -0.6500   -0.0124 N.ar      1 <0>        -0.2349
      6 C4          0.0021   -0.0041    0.0020 C.ar      1 <0>         0.0412
      7 C5          3.6926    1.9486   -0.0232 C.ar      1 <0>        -0.0129
      8 C6          3.7752    3.3415   -0.0112 C.ar      1 <0>        -0.1106
      9 C7          5.0050    3.9591   -0.0206 C.ar      1 <0>        -0.0567
     10 C8          6.1734    3.1889   -0.0416 C.ar      1 <0>        -0.1590
     11 C9          6.0882    1.7919   -0.0532 C.ar      1 <0>        -0.0722
     12 C10         4.8563    1.1787   -0.0385 C.ar      1 <0>        -0.0889
     13 C11         7.4888    3.8465   -0.0521 C.2       1 <0>         0.3949
     14 O1          7.5617    5.0570   -0.0425 O.2       1 <0>        -0.4441
     15 C12         8.7462    3.0162   -0.0748 C.3       1 <0>         0.0719
     16 N3          9.9148    3.8997   -0.0815 N.am      1 <0>        -0.7237
     17 C13        11.1562    3.3751   -0.1013 C.2       1 <0>         0.5255
     18 O2         11.3058    2.1716   -0.1136 O.2       1 <0>        -0.5318
     19 C14        12.3582    4.2839   -0.1083 C.3       1 <0>        -0.1628
     20 C15        13.6348    3.4409   -0.1313 C.3       1 <0>         0.1165
     21 N4         14.8034    4.3244   -0.1380 N.am      1 <0>        -0.5391
     22 C16        15.3193    4.7435   -1.3544 C.2       1 <0>         0.2145
     23 C17        16.3702    5.5675   -1.3467 C.2       1 <0>        -0.2480
     24 C18        16.9468    5.9391   -0.0935 C.2       1 <0>         0.5552
     25 O3         17.9278    6.6603   -0.0714 O.2       1 <0>        -0.5051
     26 N5         16.4178    5.5014    1.0597 N.am      1 <0>        -0.6561
     27 H1         16.8114    5.7600    1.9077 H         1 <0>         0.4350
     28 C19        15.3333    4.7040    1.0297 C.2       1 <0>         0.6981
     29 O4         14.8349    4.3230    2.0712 O.2       1 <0>        -0.5312
     30 C20        17.0203    6.1910   -2.5565 C.3       1 <0>        -0.0101
     31 S1         16.5874    5.2595   -4.0521 S.3       1 <0>        -0.2344
     32 C21        14.7991    5.0022   -3.8184 C.3       1 <0>        -0.0832
     33 C22        14.6163    4.1754   -2.5535 C.3       1 <0>        -0.1030
     34 H2         -0.9502    1.9253    0.0259 H         1 <0>         0.1565
     35 H3          1.2397    3.1309    0.0067 H         1 <0>         0.1543
     36 H4         -0.9261   -0.5562    0.0083 H         1 <0>         0.1774
     37 H5          2.8733    3.9354    0.0050 H         1 <0>         0.1362
     38 H6          5.0684    5.0372   -0.0120 H         1 <0>         0.1418
     39 H7          6.9885    1.1957   -0.0697 H         1 <0>         0.1417
     40 H8          4.7900    0.1007   -0.0429 H         1 <0>         0.1474
     41 H9          8.7772    2.3795    0.8094 H         1 <0>         0.1106
     42 H10         8.7553    2.3949   -0.9704 H         1 <0>         0.1109
     43 H11         9.7952    4.8622   -0.0717 H         1 <0>         0.4119
     44 H12        12.3273    4.9206   -0.9924 H         1 <0>         0.1029
     45 H13        12.3492    4.9052    0.7873 H         1 <0>         0.1090
     46 H14        13.6658    2.8042    0.7529 H         1 <0>         0.1177
     47 H15        13.6439    2.8197   -1.0269 H         1 <0>         0.1117
     48 H16        16.6774    7.2204   -2.6604 H         1 <0>         0.1028
     49 H17        18.1027    6.1848   -2.4281 H         1 <0>         0.1277
     50 H18        14.2983    5.9640   -3.7074 H         1 <0>         0.0956
     51 H19        14.3875    4.4662   -4.6736 H         1 <0>         0.1260
     52 H20        14.9963    3.1703   -2.7364 H         1 <0>         0.1177
     53 H21        13.5511    4.1071   -2.3329 H         1 <0>         0.1053
@<TRIPOS>BOND
     1    1    6 ar
     2    1    2 ar
     3    1   34 1
     4    2    3 ar
     5    2   35 1
     6    3    4 ar
     7    3    7 1
     8    4    5 ar
     9    5    6 ar
    10    6   36 1
    11    7   12 ar
    12    7    8 ar
    13    8    9 ar
    14    8   37 1
    15    9   10 ar
    16    9   38 1
    17   10   11 ar
    18   10   13 1
    19   11   12 ar
    20   11   39 1
    21   12   40 1
    22   13   14 2
    23   13   15 1
    24   15   16 1
    25   15   41 1
    26   15   42 1
    27   16   17 am
    28   16   43 1
    29   17   18 2
    30   17   19 1
    31   19   20 1
    32   19   44 1
    33   19   45 1
    34   20   21 1
    35   20   46 1
    36   20   47 1
    37   21   28 am
    38   21   22 1
    39   22   33 1
    40   22   23 2
    41   23   24 1
    42   23   30 1
    43   24   25 2
    44   24   26 am
    45   26   27 1
    46   26   28 am
    47   28   29 2
    48   30   31 1
    49   30   48 1
    50   30   49 1
    51   31   32 1
    52   32   33 1
    53   32   50 1
    54   32   51 1
    55   33   52 1
    56   33   53 1
@<TRIPOS>MOLECULE
CHEMBL321703
   54    57     0     0     0
SMALL
USER_CHARGES

@<TRIPOS>ATOM
      1 C1         -0.0168    1.3911    0.0097 C.ar      1 <0>        -0.1161
      2 C2          1.1648    2.0964    0.0022 C.ar      1 <0>        -0.0523
      3 C3          2.3862    1.4132   -0.0131 C.ar      1 <0>        -0.1668
      4 C4          2.4027    0.0137   -0.0207 C.ar      1 <0>        -0.0674
      5 C5          1.2186   -0.6874   -0.0132 C.ar      1 <0>        -0.1155
      6 C6          0.0021   -0.0041    0.0020 C.ar      1 <0>        -0.0149
      7 C7         -1.2726   -0.7618    0.0101 C.ar      1 <0>        -0.0121
      8 C8         -2.5028   -0.0977    0.0195 C.ar      1 <0>        -0.1611
      9 C9         -3.6651   -0.8417    0.0268 C.ar      1 <0>         0.1043
     10 N1         -3.6251   -2.1602    0.0255 N.ar      1 <0>        -0.4824
     11 C10        -2.4860   -2.8253    0.0167 C.ar      1 <0>         0.1041
     12 C11        -1.2771   -2.1598    0.0026 C.ar      1 <0>        -0.1608
     13 C12         3.6504    2.1647   -0.0216 C.2       1 <0>         0.3946
     14 O1          3.6350    3.3772   -0.0154 O.2       1 <0>        -0.4445
     15 C13         4.9649    1.4278   -0.0381 C.3       1 <0>         0.0726
     16 N2          6.0662    2.3939   -0.0439 N.am      1 <0>        -0.7236
     17 C14         7.3424    1.9609   -0.0585 C.2       1 <0>         0.5258
     18 O2          7.5791    0.7714   -0.0667 O.2       1 <0>        -0.5326
     19 C15         8.4753    2.9547   -0.0645 C.3       1 <0>        -0.1630
     20 C16         9.8098    2.2066   -0.0812 C.3       1 <0>         0.1167
     21 N3         10.9111    3.1727   -0.0871 N.am      1 <0>        -0.5392
     22 C17        11.3991    3.6248   -1.3032 C.2       1 <0>         0.2143
     23 C18        12.3872    4.5230   -1.2948 C.2       1 <0>        -0.2477
     24 C19        12.9314    4.9390   -0.0410 C.2       1 <0>         0.5551
     25 O3         13.8573    5.7297   -0.0181 O.2       1 <0>        -0.5048
     26 N4         12.4319    4.4671    1.1119 N.am      1 <0>        -0.6561
     27 H1         12.8030    4.7560    1.9603 H         1 <0>         0.4351
     28 C20        11.4083    3.5930    1.0811 C.2       1 <0>         0.6982
     29 O4         10.9356    3.1796    2.1222 O.2       1 <0>        -0.5313
     30 C21        12.9942    5.1888   -2.5045 C.3       1 <0>        -0.0103
     31 S1         12.6349    4.2242   -3.9986 S.3       1 <0>        -0.2342
     32 C22        10.8693    3.8383   -3.7695 C.3       1 <0>        -0.0833
     33 C23        10.7431    3.0038   -2.5027 C.3       1 <0>        -0.1028
     34 H2         -0.9595    1.9179    0.0260 H         1 <0>         0.1363
     35 H3          1.1497    3.1763    0.0077 H         1 <0>         0.1401
     36 H4          3.3440   -0.5156   -0.0329 H         1 <0>         0.1397
     37 H5          1.2308   -1.7673   -0.0194 H         1 <0>         0.1372
     38 H6         -2.5430    0.9816    0.0214 H         1 <0>         0.1395
     39 H7         -4.6202   -0.3378    0.0342 H         1 <0>         0.1604
     40 H8         -2.4997   -3.9052    0.0159 H         1 <0>         0.1606
     41 H9         -0.3483   -2.7108   -0.0096 H         1 <0>         0.1400
     42 H10         5.0392    0.7975    0.8481 H         1 <0>         0.1097
     43 H11         5.0219    0.8064   -0.9318 H         1 <0>         0.1099
     44 H12         5.8769    3.3452   -0.0373 H         1 <0>         0.4121
     45 H13         8.4010    3.5850   -0.9507 H         1 <0>         0.1030
     46 H14         8.4182    3.5761    0.8292 H         1 <0>         0.1091
     47 H15         9.8841    1.5763    0.8049 H         1 <0>         0.1175
     48 H16         9.8669    1.5852   -0.9749 H         1 <0>         0.1116
     49 H17        12.5777    6.1902   -2.6125 H         1 <0>         0.1029
     50 H18        14.0738    5.2616   -2.3728 H         1 <0>         0.1278
     51 H19        10.2995    4.7614   -3.6628 H         1 <0>         0.0957
     52 H20        10.5004    3.2714   -4.6243 H         1 <0>         0.1260
     53 H21        11.1957    2.0285   -2.6815 H         1 <0>         0.1176
     54 H22         9.6849    2.8589   -2.2851 H         1 <0>         0.1051
@<TRIPOS>BOND
     1    1    6 ar
     2    1    2 ar
     3    1   34 1
     4    2    3 ar
     5    2   35 1
     6    3    4 ar
     7    3   13 1
     8    4    5 ar
     9    4   36 1
    10    5    6 ar
    11    5   37 1
    12    6    7 1
    13    7   12 ar
    14    7    8 ar
    15    8    9 ar
    16    8   38 1
    17    9   10 ar
    18    9   39 1
    19   10   11 ar
    20   11   12 ar
    21   11   40 1
    22   12   41 1
    23   13   14 2
    24   13   15 1
    25   15   16 1
    26   15   42 1
    27   15   43 1
    28   16   17 am
    29   16   44 1
    30   17   18 2
    31   17   19 1
    32   19   20 1
    33   19   45 1
    34   19   46 1
    35   20   21 1
    36   20   47 1
    37   20   48 1
    38   21   28 am
    39   21   22 1
    40   22   33 1
    41   22   23 2
    42   23   24 1
    43   23   30 1
    44   24   25 2
    45   24   26 am
    46   26   27 1
    47   26   28 am
    48   28   29 2
    49   30   31 1
    50   30   49 1
    51   30   50 1
    52   31   32 1
    53   32   33 1
    54   32   51 1
    55   32   52 1
    56   33   53 1
    57   33   54 1
@<TRIPOS>MOLECULE
CHEMBL246185
   56    60     0     0     0
SMALL
USER_CHARGES

@<TRIPOS>ATOM
      1 C1         -0.0167    1.3781    0.0096 C.ar      1 <0>        -0.1100
      2 C2          1.1709    2.0855    0.0021 C.ar      1 <0>        -0.1126
      3 C3          2.3773    1.4107   -0.0130 C.ar      1 <0>        -0.1098
      4 C4          2.3960    0.0285   -0.0201 C.ar      1 <0>        -0.0972
      5 C5          1.2084   -0.6789   -0.0117 C.ar      1 <0>        -0.1167
      6 C6          0.0021   -0.0041    0.0020 C.ar      1 <0>        -0.1147
      7 C7          3.7112   -0.7071   -0.0376 C.3       1 <0>        -0.0536
      8 C8          3.7885   -1.5882   -1.2877 C.3       1 <0>        -0.1391
      9 C9          5.0904   -2.3918   -1.2589 C.3       1 <0>        -0.0079
     10 N1          5.1211   -3.2377   -0.0597 N.4       1 <0>        -0.3804
     11 C10         5.1196   -2.3966    1.1432 C.3       1 <0>        -0.0116
     12 C11         3.8189   -1.5931    1.2068 C.3       1 <0>        -0.1389
     13 C12         6.3355   -4.0641   -0.0761 C.3       1 <0>         0.0213
     14 C13         6.3133   -5.0119   -1.2931 C.3       1 <0>        -0.1383
     15 C14         6.9466   -6.3230   -0.7649 C.3       1 <0>        -0.1143
     16 C15         6.3867   -6.4168    0.6762 C.3       1 <0>        -0.0480
     17 C16         6.3822   -4.9573    1.1759 C.3       1 <0>        -0.1364
     18 C17         7.2858   -7.2663    1.5371 C.2       1 <0>         0.3913
     19 N2          7.0945   -8.6113    1.5377 N.am      1 <0>        -0.6516
     20 H1          6.3919   -8.9970    0.9913 H         1 <0>         0.4189
     21 C18         7.8756   -9.4180    2.2933 C.2       1 <0>         0.5499
     22 O1          7.7158  -10.6247    2.3028 O.2       1 <0>        -0.4963
     23 C19         8.9250   -8.7800    3.1020 C.ar      1 <0>        -0.1932
     24 C20         9.7819   -9.5200    3.9141 C.ar      1 <0>        -0.0406
     25 C21        10.7476   -8.8707    4.6514 C.ar      1 <0>        -0.1269
     26 C22        10.8722   -7.4888    4.5908 C.ar      1 <0>        -0.0695
     27 C23        10.0354   -6.7393    3.7950 C.ar      1 <0>        -0.1073
     28 C24         9.0489   -7.3745    3.0379 C.ar      1 <0>         0.1433
     29 N3          8.2068   -6.6757    2.2362 N.2       1 <0>        -0.5129
     30 H2         -0.9591    1.9053    0.0259 H         1 <0>         0.1275
     31 H3          1.1563    3.1654    0.0076 H         1 <0>         0.1279
     32 H4          3.3051    1.9634   -0.0196 H         1 <0>         0.1237
     33 H5          1.2231   -1.7588   -0.0176 H         1 <0>         0.1173
     34 H6         -0.9258   -0.5567    0.0082 H         1 <0>         0.1261
     35 H7          4.5307    0.0115   -0.0454 H         1 <0>         0.0959
     36 H8          2.9394   -2.2714   -1.3046 H         1 <0>         0.0893
     37 H9          3.7685   -0.9595   -2.1779 H         1 <0>         0.1140
     38 H10         5.1488   -3.0201   -2.1477 H         1 <0>         0.1319
     39 H11         5.9388   -1.7078   -1.2423 H         1 <0>         0.1303
     40 H12         5.1996   -3.0283    2.0278 H         1 <0>         0.1339
     41 H13         5.9674   -1.7124    1.1086 H         1 <0>         0.1312
     42 H14         3.8205   -0.9680    2.0997 H         1 <0>         0.1141
     43 H15         2.9704   -2.2764    1.2417 H         1 <0>         0.0891
     44 H16         7.2195   -3.4275   -0.1138 H         1 <0>         0.1460
     45 H17         5.2887   -5.1881   -1.6207 H         1 <0>         0.0916
     46 H18         6.9100   -4.6011   -2.1075 H         1 <0>         0.1049
     47 H19         6.6228   -7.1760   -1.3614 H         1 <0>         0.0961
     48 H20         8.0340   -6.2492   -0.7528 H         1 <0>         0.0935
     49 H21         5.3740   -6.8198    0.6666 H         1 <0>         0.1123
     50 H22         7.2893   -4.7548    1.7454 H         1 <0>         0.1358
     51 H23         5.5037   -4.7776    1.7958 H         1 <0>         0.0906
     52 H24         9.6894  -10.5949    3.9655 H         1 <0>         0.1420
     53 H25        11.4132   -9.4411    5.2822 H         1 <0>         0.1395
     54 H26        11.6349   -6.9959    5.1755 H         1 <0>         0.1395
     55 H27        10.1418   -5.6653    3.7560 H         1 <0>         0.1401
     56 H28         4.3092   -3.8367   -0.0510 H         1 <0>         0.4191
@<TRIPOS>BOND
     1    1    6 ar
     2    1    2 ar
     3    1   30 1
     4    2    3 ar
     5    2   31 1
     6    3    4 ar
     7    3   32 1
     8    4    5 ar
     9    4    7 1
    10    5    6 ar
    11    5   33 1
    12    6   34 1
    13    7   12 1
    14    7    8 1
    15    7   35 1
    16    8    9 1
    17    8   36 1
    18    8   37 1
    19    9   10 1
    20    9   38 1
    21    9   39 1
    22   10   11 1
    23   10   13 1
    24   10   56 1
    25   11   12 1
    26   11   40 1
    27   11   41 1
    28   12   42 1
    29   12   43 1
    30   13   17 1
    31   13   14 1
    32   13   44 1
    33   14   15 1
    34   14   45 1
    35   14   46 1
    36   15   16 1
    37   15   47 1
    38   15   48 1
    39   16   17 1
    40   16   18 1
    41   16   49 1
    42   17   50 1
    43   17   51 1
    44   18   29 2
    45   18   19 1
    46   19   20 1
    47   19   21 am
    48   21   22 2
    49   21   23 1
    50   23   28 ar
    51   23   24 ar
    52   24   25 ar
    53   24   52 1
    54   25   26 ar
    55   25   53 1
    56   26   27 ar
    57   26   54 1
    58   27   28 ar
    59   27   55 1
    60   28   29 1
@<TRIPOS>MOLECULE
CHEMBL246185__1
   56    60     0     0     0
SMALL
USER_CHARGES

@<TRIPOS>ATOM
      1 C1         -0.0167    1.3781    0.0096 C.ar      1 <0>        -0.1101
      2 C2          1.1709    2.0855    0.0021 C.ar      1 <0>        -0.1129
      3 C3          2.3773    1.4107   -0.0130 C.ar      1 <0>        -0.1099
      4 C4          2.3960    0.0285   -0.0201 C.ar      1 <0>        -0.0971
      5 C5          1.2084   -0.6789   -0.0117 C.ar      1 <0>        -0.1163
      6 C6          0.0021   -0.0041    0.0020 C.ar      1 <0>        -0.1146
      7 C7          3.7112   -0.7071   -0.0376 C.3       1 <0>        -0.0534
      8 C8          3.7885   -1.5882   -1.2877 C.3       1 <0>        -0.1393
      9 C9          5.0904   -2.3918   -1.2589 C.3       1 <0>        -0.0068
     10 N1          5.1211   -3.2377   -0.0597 N.4       1 <0>        -0.3770
     11 C10         5.1196   -2.3966    1.1432 C.3       1 <0>        -0.0085
     12 C11         3.8189   -1.5931    1.2068 C.3       1 <0>        -0.1392
     13 C12         6.3355   -4.0641   -0.0761 C.3       1 <0>         0.0154
     14 C13         6.2865   -5.0888   -1.2365 C.3       1 <0>        -0.1342
     15 C14         7.2345   -6.2185   -0.7839 C.3       1 <0>        -0.1153
     16 C15         7.3064   -6.1434    0.7513 C.3       1 <0>        -0.0419
     17 C16         6.3995   -4.9707    1.1781 C.3       1 <0>        -0.1315
     18 C17         6.8051   -7.4299    1.3551 C.2       1 <0>         0.3930
     19 N2          7.6864   -8.4505    1.5206 N.am      1 <0>        -0.6512
     20 H1          8.6110   -8.3355    1.2509 H         1 <0>         0.4203
     21 C18         7.2861   -9.6261    2.0587 C.2       1 <0>         0.5494
     22 O1          8.0652  -10.5485    2.2134 O.2       1 <0>        -0.4948
     23 C19         5.8736   -9.7455    2.4496 C.ar      1 <0>        -0.1934
     24 C20         5.3604  -10.9126    3.0117 C.ar      1 <0>        -0.0393
     25 C21         4.0286  -10.9700    3.3591 C.ar      1 <0>        -0.1277
     26 C22         3.1972   -9.8766    3.1536 C.ar      1 <0>        -0.0692
     27 C23         3.6844   -8.7145    2.5993 C.ar      1 <0>        -0.1096
     28 C24         5.0311   -8.6315    2.2392 C.ar      1 <0>         0.1442
     29 N3          5.5543   -7.5043    1.6953 N.2       1 <0>        -0.5183
     30 H2         -0.9591    1.9053    0.0259 H         1 <0>         0.1274
     31 H3          1.1563    3.1654    0.0076 H         1 <0>         0.1276
     32 H4          3.3051    1.9634   -0.0196 H         1 <0>         0.1235
     33 H5          1.2231   -1.7588   -0.0176 H         1 <0>         0.1178
     34 H6         -0.9258   -0.5567    0.0082 H         1 <0>         0.1262
     35 H7          4.5307    0.0115   -0.0454 H         1 <0>         0.0955
     36 H8          2.9394   -2.2714   -1.3046 H         1 <0>         0.0898
     37 H9          3.7685   -0.9595   -2.1779 H         1 <0>         0.1138
     38 H10         5.1488   -3.0201   -2.1477 H         1 <0>         0.1313
     39 H11         5.9388   -1.7078   -1.2423 H         1 <0>         0.1296
     40 H12         5.1996   -3.0283    2.0278 H         1 <0>         0.1329
     41 H13         5.9674   -1.7124    1.1086 H         1 <0>         0.1295
     42 H14         3.8205   -0.9680    2.0997 H         1 <0>         0.1138
     43 H15         2.9704   -2.2764    1.2417 H         1 <0>         0.0901
     44 H16         7.2255   -3.4388   -0.1466 H         1 <0>         0.1476
     45 H17         5.2735   -5.4700   -1.3663 H         1 <0>         0.0922
     46 H18         6.6461   -4.6363   -2.1606 H         1 <0>         0.0995
     47 H19         6.8371   -7.1855   -1.0922 H         1 <0>         0.0883
     48 H20         8.2256   -6.0681   -1.2119 H         1 <0>         0.0957
     49 H21         8.3324   -5.9565    1.0684 H         1 <0>         0.1157
     50 H22         6.8416   -4.4319    2.0161 H         1 <0>         0.1000
     51 H23         5.4048   -5.3328    1.4382 H         1 <0>         0.1206
     52 H24         6.0021  -11.7662    3.1735 H         1 <0>         0.1422
     53 H25         3.6274  -11.8732    3.7947 H         1 <0>         0.1395
     54 H26         2.1556   -9.9389    3.4319 H         1 <0>         0.1390
     55 H27         3.0284   -7.8707    2.4443 H         1 <0>         0.1381
     56 H28         4.3092   -3.8367   -0.0510 H         1 <0>         0.4221
@<TRIPOS>BOND
     1    1    6 ar
     2    1    2 ar
     3    1   30 1
     4    2    3 ar
     5    2   31 1
     6    3    4 ar
     7    3   32 1
     8    4    5 ar
     9    4    7 1
    10    5    6 ar
    11    5   33 1
    12    6   34 1
    13    7   12 1
    14    7    8 1
    15    7   35 1
    16    8    9 1
    17    8   36 1
    18    8   37 1
    19    9   10 1
    20    9   38 1
    21    9   39 1
    22   10   11 1
    23   10   13 1
    24   10   56 1
    25   11   12 1
    26   11   40 1
    27   11   41 1
    28   12   42 1
    29   12   43 1
    30   13   17 1
    31   13   14 1
    32   13   44 1
    33   14   15 1
    34   14   45 1
    35   14   46 1
    36   15   16 1
    37   15   47 1
    38   15   48 1
    39   16   17 1
    40   16   18 1
    41   16   49 1
    42   17   50 1
    43   17   51 1
    44   18   29 2
    45   18   19 1
    46   19   20 1
    47   19   21 am
    48   21   22 2
    49   21   23 1
    50   23   28 ar
    51   23   24 ar
    52   24   25 ar
    53   24   52 1
    54   25   26 ar
    55   25   53 1
    56   26   27 ar
    57   26   54 1
    58   27   28 ar
    59   27   55 1
    60   28   29 1
@<TRIPOS>MOLECULE
CHEMBL246185__2
   56    60     0     0     0
SMALL
USER_CHARGES

@<TRIPOS>ATOM
      1 C1         -0.0167    1.3781    0.0096 C.ar      1 <0>        -0.1100
      2 C2          1.1709    2.0855    0.0021 C.ar      1 <0>        -0.1128
      3 C3          2.3773    1.4107   -0.0130 C.ar      1 <0>        -0.1099
      4 C4          2.3960    0.0285   -0.0201 C.ar      1 <0>        -0.0972
      5 C5          1.2084   -0.6789   -0.0117 C.ar      1 <0>        -0.1164
      6 C6          0.0021   -0.0041    0.0020 C.ar      1 <0>        -0.1146
      7 C7          3.7112   -0.7071   -0.0376 C.3       1 <0>        -0.0535
      8 C8          3.7885   -1.5882   -1.2877 C.3       1 <0>        -0.1391
      9 C9          5.0904   -2.3918   -1.2589 C.3       1 <0>        -0.0086
     10 N1          5.1211   -3.2377   -0.0597 N.4       1 <0>        -0.3779
     11 C10         5.1196   -2.3966    1.1432 C.3       1 <0>        -0.0076
     12 C11         3.8189   -1.5931    1.2068 C.3       1 <0>        -0.1394
     13 C12         6.3355   -4.0641   -0.0761 C.3       1 <0>         0.0156
     14 C13         6.3295   -5.0561    1.1053 C.3       1 <0>        -0.1353
     15 C14         6.9372   -6.3686    0.5802 C.3       1 <0>        -0.1170
     16 C15         7.2913   -6.1284   -0.9019 C.3       1 <0>        -0.0424
     17 C16         6.3580   -4.9697   -1.3325 C.3       1 <0>        -0.1255
     18 C17         7.0099   -7.3635   -1.7183 C.2       1 <0>         0.3935
     19 N2          7.9751   -8.3161   -1.7993 N.am      1 <0>        -0.6514
     20 H1          8.8178   -8.1870   -1.3366 H         1 <0>         0.4199
     21 C18         7.7715   -9.4438   -2.5195 C.2       1 <0>         0.5496
     22 O1          8.6272  -10.3058   -2.6000 O.2       1 <0>        -0.4954
     23 C19         6.4761   -9.5874   -3.2003 C.ar      1 <0>        -0.1932
     24 C20         6.1666  -10.7091   -3.9668 C.ar      1 <0>        -0.0399
     25 C21         4.9375  -10.7916   -4.5836 C.ar      1 <0>        -0.1274
     26 C22         4.0085   -9.7682   -4.4470 C.ar      1 <0>        -0.0695
     27 C23         4.2949   -8.6515   -3.6946 C.ar      1 <0>        -0.1085
     28 C24         5.5338   -8.5447   -3.0593 C.ar      1 <0>         0.1437
     29 N3          5.8555   -7.4649   -2.3038 N.2       1 <0>        -0.5155
     30 H2         -0.9591    1.9053    0.0259 H         1 <0>         0.1274
     31 H3          1.1563    3.1654    0.0076 H         1 <0>         0.1277
     32 H4          3.3051    1.9634   -0.0196 H         1 <0>         0.1235
     33 H5          1.2231   -1.7588   -0.0176 H         1 <0>         0.1178
     34 H6         -0.9258   -0.5567    0.0082 H         1 <0>         0.1262
     35 H7          4.5307    0.0115   -0.0454 H         1 <0>         0.0955
     36 H8          2.9394   -2.2714   -1.3046 H         1 <0>         0.0901
     37 H9          3.7685   -0.9595   -2.1779 H         1 <0>         0.1140
     38 H10         5.1488   -3.0201   -2.1477 H         1 <0>         0.1336
     39 H11         5.9388   -1.7078   -1.2423 H         1 <0>         0.1296
     40 H12         5.1996   -3.0283    2.0278 H         1 <0>         0.1314
     41 H13         5.9674   -1.7124    1.1086 H         1 <0>         0.1299
     42 H14         3.8205   -0.9680    2.0997 H         1 <0>         0.1139
     43 H15         2.9704   -2.2764    1.2417 H         1 <0>         0.0897
     44 H16         7.2247   -3.4345   -0.0437 H         1 <0>         0.1465
     45 H17         6.9344   -4.6657    1.9237 H         1 <0>         0.1015
     46 H18         5.3077   -5.2270    1.4441 H         1 <0>         0.0894
     47 H19         7.8370   -6.6152    1.1439 H         1 <0>         0.0936
     48 H20         6.2104   -7.1765    0.6643 H         1 <0>         0.0879
     49 H21         8.3360   -5.8339   -1.0017 H         1 <0>         0.1169
     50 H22         5.3587   -5.3421   -1.5581 H         1 <0>         0.1173
     51 H23         6.7742   -4.4353   -2.1865 H         1 <0>         0.1014
     52 H24         6.8851  -11.5079   -4.0768 H         1 <0>         0.1421
     53 H25         4.6943  -11.6594   -5.1787 H         1 <0>         0.1395
     54 H26         3.0497   -9.8494   -4.9375 H         1 <0>         0.1391
     55 H27         3.5645   -7.8621   -3.5957 H         1 <0>         0.1388
     56 H28         4.3092   -3.8367   -0.0510 H         1 <0>         0.4216
@<TRIPOS>BOND
     1    1    6 ar
     2    1    2 ar
     3    1   30 1
     4    2    3 ar
     5    2   31 1
     6    3    4 ar
     7    3   32 1
     8    4    5 ar
     9    4    7 1
    10    5    6 ar
    11    5   33 1
    12    6   34 1
    13    7   12 1
    14    7    8 1
    15    7   35 1
    16    8    9 1
    17    8   36 1
    18    8   37 1
    19    9   10 1
    20    9   38 1
    21    9   39 1
    22   10   11 1
    23   10   13 1
    24   10   56 1
    25   11   12 1
    26   11   40 1
    27   11   41 1
    28   12   42 1
    29   12   43 1
    30   13   17 1
    31   13   14 1
    32   13   44 1
    33   14   15 1
    34   14   45 1
    35   14   46 1
    36   15   16 1
    37   15   47 1
    38   15   48 1
    39   16   17 1
    40   16   18 1
    41   16   49 1
    42   17   50 1
    43   17   51 1
    44   18   29 2
    45   18   19 1
    46   19   20 1
    47   19   21 am
    48   21   22 2
    49   21   23 1
    50   23   28 ar
    51   23   24 ar
    52   24   25 ar
    53   24   52 1
    54   25   26 ar
    55   25   53 1
    56   26   27 ar
    57   26   54 1
    58   27   28 ar
    59   27   55 1
    60   28   29 1
@<TRIPOS>MOLECULE
CHEMBL246185__3
   56    60     0     0     0
SMALL
USER_CHARGES

@<TRIPOS>ATOM
      1 C1         -0.0167    1.3781    0.0096 C.ar      1 <0>        -0.1101
      2 C2          1.1709    2.0855    0.0021 C.ar      1 <0>        -0.1127
      3 C3          2.3773    1.4107   -0.0130 C.ar      1 <0>        -0.1098
      4 C4          2.3960    0.0285   -0.0201 C.ar      1 <0>        -0.0970
      5 C5          1.2084   -0.6789   -0.0117 C.ar      1 <0>        -0.1166
      6 C6          0.0021   -0.0041    0.0020 C.ar      1 <0>        -0.1148
      7 C7          3.7112   -0.7071   -0.0376 C.3       1 <0>        -0.0537
      8 C8          3.7885   -1.5882   -1.2877 C.3       1 <0>        -0.1390
      9 C9          5.0904   -2.3918   -1.2589 C.3       1 <0>        -0.0088
     10 N1          5.1211   -3.2377   -0.0597 N.4       1 <0>        -0.3784
     11 C10         5.1196   -2.3966    1.1432 C.3       1 <0>        -0.0072
     12 C11         3.8189   -1.5931    1.2068 C.3       1 <0>        -0.1390
     13 C12         6.3355   -4.0641   -0.0761 C.3       1 <0>         0.0194
     14 C13         6.3295   -5.0601    1.1100 C.3       1 <0>        -0.1366
     15 C14         7.2736   -6.1846    0.6169 C.3       1 <0>        -0.1140
     16 C15         6.9544   -6.3143   -0.8868 C.3       1 <0>        -0.0432
     17 C16         6.3579   -4.9661   -1.3274 C.3       1 <0>        -0.1322
     18 C17         8.2165   -6.5978   -1.6599 C.2       1 <0>         0.3909
     19 N2          8.6140   -7.8900   -1.7933 N.am      1 <0>        -0.6511
     20 H1          8.0859   -8.5989   -1.3940 H         1 <0>         0.4198
     21 C18         9.7400   -8.1973   -2.4785 C.2       1 <0>         0.5494
     22 O1         10.1074   -9.3507   -2.6065 O.2       1 <0>        -0.4954
     23 C19        10.5019   -7.0836   -3.0629 C.ar      1 <0>        -0.1933
     24 C20        11.6745   -7.2921   -3.7861 C.ar      1 <0>        -0.0398
     25 C21        12.3490   -6.2118   -4.3115 C.ar      1 <0>        -0.1275
     26 C22        11.8699   -4.9215   -4.1257 C.ar      1 <0>        -0.0694
     27 C23        10.7137   -4.6941   -3.4140 C.ar      1 <0>        -0.1088
     28 C24        10.0118   -5.7728   -2.8720 C.ar      1 <0>         0.1440
     29 N3          8.8654   -5.5949   -2.1688 N.2       1 <0>        -0.5164
     30 H2         -0.9591    1.9053    0.0259 H         1 <0>         0.1274
     31 H3          1.1563    3.1654    0.0076 H         1 <0>         0.1278
     32 H4          3.3051    1.9634   -0.0196 H         1 <0>         0.1237
     33 H5          1.2231   -1.7588   -0.0176 H         1 <0>         0.1174
     34 H6         -0.9258   -0.5567    0.0082 H         1 <0>         0.1261
     35 H7          4.5307    0.0115   -0.0454 H         1 <0>         0.0958
     36 H8          2.9394   -2.2714   -1.3046 H         1 <0>         0.0892
     37 H9          3.7685   -0.9595   -2.1779 H         1 <0>         0.1140
     38 H10         5.1488   -3.0201   -2.1477 H         1 <0>         0.1325
     39 H11         5.9388   -1.7078   -1.2423 H         1 <0>         0.1308
     40 H12         5.1996   -3.0283    2.0278 H         1 <0>         0.1316
     41 H13         5.9674   -1.7124    1.1086 H         1 <0>         0.1299
     42 H14         3.8205   -0.9680    2.0997 H         1 <0>         0.1138
     43 H15         2.9704   -2.2764    1.2417 H         1 <0>         0.0894
     44 H16         7.2247   -3.4345   -0.0437 H         1 <0>         0.1490
     45 H17         6.7253   -4.5906    2.0106 H         1 <0>         0.1014
     46 H18         5.3256   -5.4473    1.2842 H         1 <0>         0.0941
     47 H19         8.3155   -5.8991    0.7625 H         1 <0>         0.0895
     48 H20         7.0572   -7.1189    1.1349 H         1 <0>         0.0981
     49 H21         6.2304   -7.1132   -1.0472 H         1 <0>         0.1153
     50 H22         5.3444   -5.1106   -1.7017 H         1 <0>         0.0904
     51 H23         6.9813   -4.5168   -2.1005 H         1 <0>         0.1260
     52 H24        12.0520   -8.2931   -3.9335 H         1 <0>         0.1420
     53 H25        13.2583   -6.3697   -4.8723 H         1 <0>         0.1394
     54 H26        12.4113   -4.0862   -4.5445 H         1 <0>         0.1390
     55 H27        10.3508   -3.6863   -3.2760 H         1 <0>         0.1388
     56 H28         4.3092   -3.8367   -0.0510 H         1 <0>         0.4191
@<TRIPOS>BOND
     1    1    6 ar
     2    1    2 ar
     3    1   30 1
     4    2    3 ar
     5    2   31 1
     6    3    4 ar
     7    3   32 1
     8    4    5 ar
     9    4    7 1
    10    5    6 ar
    11    5   33 1
    12    6   34 1
    13    7   12 1
    14    7    8 1
    15    7   35 1
    16    8    9 1
    17    8   36 1
    18    8   37 1
    19    9   10 1
    20    9   38 1
    21    9   39 1
    22   10   11 1
    23   10   13 1
    24   10   56 1
    25   11   12 1
    26   11   40 1
    27   11   41 1
    28   12   42 1
    29   12   43 1
    30   13   17 1
    31   13   14 1
    32   13   44 1
    33   14   15 1
    34   14   45 1
    35   14   46 1
    36   15   16 1
    37   15   47 1
    38   15   48 1
    39   16   17 1
    40   16   18 1
    41   16   49 1
    42   17   50 1
    43   17   51 1
    44   18   29 2
    45   18   19 1
    46   19   20 1
    47   19   21 am
    48   21   22 2
    49   21   23 1
    50   23   28 ar
    51   23   24 ar
    52   24   25 ar
    53   24   52 1
    54   25   26 ar
    55   25   53 1
    56   26   27 ar
    57   26   54 1
    58   27   28 ar
    59   27   55 1
    60   28   29 1
@<TRIPOS>MOLECULE
CHEMBL550382
   43    46     0     0     0
SMALL
USER_CHARGES

@<TRIPOS>ATOM
      1 C1         -0.0178    1.4648    0.0101 C.3       1 <0>        -0.0446
      2 N1          0.0021   -0.0041    0.0020 N.4       1 <0>        -0.3909
      3 C2         -1.3828   -0.5206    0.0336 C.3       1 <0>        -0.0092
      4 C3         -1.3091   -1.7972    0.9079 C.3       1 <0>        -0.1444
      5 C4         -0.2744   -1.3795    1.9858 C.3       1 <0>        -0.1188
      6 C5          0.7144   -0.4972    1.1951 C.3       1 <0>        -0.0067
      7 C6          0.4355   -2.6076    2.5590 C.3       1 <0>         0.1285
      8 N2         -0.5260   -3.4241    3.3040 N.am      1 <0>        -0.7296
      9 C7         -0.1230   -4.5634    3.9006 C.2       1 <0>         0.6176
     10 O1          1.0383   -4.9136    3.8206 O.2       1 <0>        -0.5201
     11 C8         -1.0931   -5.3871    4.6523 C.2       1 <0>         0.0518
     12 C9         -0.8058   -6.5855    5.3212 C.2       1 <0>        -0.2842
     13 C10        -1.9816   -7.0388    5.8953 C.2       1 <0>         0.3625
     14 N3         -2.2391   -8.1335    6.6369 N.2       1 <0>        -0.6106
     15 C11        -3.4391   -8.3960    7.0997 C.2       1 <0>         0.4753
     16 O2         -3.6615   -9.5056    7.8422 O.3       1 <0>        -0.6463
     17 C12        -4.5366   -7.4674    6.8000 C.ar      1 <0>        -0.1561
     18 C13        -5.8341   -7.6894    7.2628 C.ar      1 <0>        -0.0347
     19 C14        -6.8227   -6.7952    6.9577 C.ar      1 <0>        -0.1539
     20 C15        -6.5477   -5.6707    6.1926 C.ar      1 <0>        -0.0842
     21 C16        -5.2718   -5.4329    5.7250 C.ar      1 <0>        -0.1460
     22 C17        -4.2543   -6.3281    6.0247 C.ar      1 <0>         0.1913
     23 N4         -2.9581   -6.1327    5.5793 N.pl3     1 <0>        -0.3449
     24 N5         -2.3761   -5.1156    4.8121 N.2       1 <0>        -0.3278
     25 H1          1.0047    1.8421    0.0024 H         1 <0>         0.1225
     26 H2         -0.5450    1.8259   -0.8730 H         1 <0>         0.1219
     27 H3         -0.5280    1.8163    0.9069 H         1 <0>         0.1216
     28 H4         -2.0508    0.2118    0.4870 H         1 <0>         0.1332
     29 H5         -1.7182   -0.7691   -0.9733 H         1 <0>         0.1357
     30 H6         -2.2763   -2.0175    1.3597 H         1 <0>         0.1209
     31 H7         -0.9479   -2.6469    0.3285 H         1 <0>         0.1044
     32 H8         -0.7542   -0.8054    2.7785 H         1 <0>         0.1156
     33 H9          1.5789   -1.0884    0.8928 H         1 <0>         0.1370
     34 H10         1.0343    0.3440    1.8100 H         1 <0>         0.1371
     35 H11         0.8578   -3.1962    1.7445 H         1 <0>         0.0777
     36 H12         1.2344   -2.2865    3.2274 H         1 <0>         0.0816
     37 H13        -1.4527   -3.1447    3.3679 H         1 <0>         0.4096
     38 H14         0.1587   -7.0681    5.3781 H         1 <0>         0.1520
     39 H15        -6.0564   -8.5626    7.8583 H         1 <0>         0.1421
     40 H16        -7.8274   -6.9660    7.3154 H         1 <0>         0.1270
     41 H17        -7.3405   -4.9749    5.9607 H         1 <0>         0.1265
     42 H18        -5.0659   -4.5558    5.1295 H         1 <0>         0.1308
     43 H19         0.4664   -0.3335   -0.8310 H         1 <0>         0.4286
@<TRIPOS>BOND
     1    1    2 1
     2    1   25 1
     3    1   26 1
     4    1   27 1
     5    2    6 1
     6    2    3 1
     7    2   43 1
     8    3    4 1
     9    3   28 1
    10    3   29 1
    11    4    5 1
    12    4   30 1
    13    4   31 1
    14    5    6 1
    15    5    7 1
    16    5   32 1
    17    6   33 1
    18    6   34 1
    19    7    8 1
    20    7   35 1
    21    7   36 1
    22    8    9 am
    23    8   37 1
    24    9   10 2
    25    9   11 1
    26   11   24 2
    27   11   12 1
    28   12   13 2
    29   12   38 1
    30   13   23 1
    31   13   14 1
    32   14   15 2
    33   15   16 1
    34   15   17 1
    35   17   22 ar
    36   17   18 ar
    37   18   19 ar
    38   18   39 1
    39   19   20 ar
    40   19   40 1
    41   20   21 ar
    42   20   41 1
    43   21   22 ar
    44   21   42 1
    45   22   23 1
    46   23   24 1
@<TRIPOS>MOLECULE
CHEMBL550382__1
   43    46     0     0     0
SMALL
USER_CHARGES

@<TRIPOS>ATOM
      1 C1         -0.0178    1.4648    0.0101 C.3       1 <0>        -0.0413
      2 N1          0.0021   -0.0041    0.0020 N.4       1 <0>        -0.3973
      3 C2         -1.3755   -0.5431    0.1387 C.3       1 <0>        -0.0027
      4 C3         -1.1803   -1.9787    0.6719 C.3       1 <0>        -0.1507
      5 C4          0.1959   -1.9639    1.3686 C.3       1 <0>        -0.1236
      6 C5          0.7164   -0.5206    1.1978 C.3       1 <0>         0.0023
      7 C6          0.0436   -2.3017    2.8531 C.3       1 <0>         0.1275
      8 N2         -0.4030   -3.6898    2.9947 N.am      1 <0>        -0.7304
      9 C7         -0.6059   -4.2106    4.2211 C.2       1 <0>         0.6177
     10 O1         -0.4182   -3.5286    5.2097 O.2       1 <0>        -0.5201
     11 C8         -1.0565   -5.6110    4.3640 C.2       1 <0>         0.0514
     12 C9         -1.3091   -6.2709    5.5751 C.2       1 <0>        -0.2843
     13 C10        -1.7093   -7.5621    5.2746 C.2       1 <0>         0.3625
     14 N3         -2.0639   -8.5868    6.0739 N.2       1 <0>        -0.6108
     15 C11        -2.4194   -9.7556    5.5935 C.2       1 <0>         0.4754
     16 O2         -2.7701  -10.7629    6.4267 O.3       1 <0>        -0.6462
     17 C12        -2.4312   -9.9534    4.1384 C.ar      1 <0>        -0.1561
     18 C13        -2.7995  -11.1712    3.5654 C.ar      1 <0>        -0.0348
     19 C14        -2.7951  -11.3066    2.2046 C.ar      1 <0>        -0.1538
     20 C15        -2.4277  -10.2454    1.3896 C.ar      1 <0>        -0.0842
     21 C16        -2.0598   -9.0333    1.9360 C.ar      1 <0>        -0.1459
     22 C17        -2.0587   -8.8755    3.3150 C.ar      1 <0>         0.1912
     23 N4         -1.6984   -7.6787    3.9105 N.pl3     1 <0>        -0.3448
     24 N5         -1.2947   -6.4504    3.3721 N.2       1 <0>        -0.3275
     25 H1          1.0047    1.8421    0.0024 H         1 <0>         0.1224
     26 H2         -0.5450    1.8259   -0.8730 H         1 <0>         0.1221
     27 H3         -0.5280    1.8163    0.9069 H         1 <0>         0.1218
     28 H4         -1.9478    0.0521    0.8502 H         1 <0>         0.1335
     29 H5         -1.8742   -0.5621   -0.8304 H         1 <0>         0.1345
     30 H6         -1.9643   -2.2267    1.3874 H         1 <0>         0.1178
     31 H7         -1.1797   -2.6919   -0.1524 H         1 <0>         0.1043
     32 H8          0.8720   -2.6698    0.8863 H         1 <0>         0.1162
     33 H9          1.7928   -0.5225    1.0262 H         1 <0>         0.1391
     34 H10         0.4715    0.0782    2.0751 H         1 <0>         0.1379
     35 H11         1.0031   -2.1758    3.3546 H         1 <0>         0.0812
     36 H12        -0.6921   -1.6355    3.3037 H         1 <0>         0.0775
     37 H13        -0.5528   -4.2340    2.2058 H         1 <0>         0.4102
     38 H14        -1.2092   -5.8485    6.5640 H         1 <0>         0.1520
     39 H15        -3.0861  -12.0022    4.1930 H         1 <0>         0.1421
     40 H16        -3.0800  -12.2487    1.7600 H         1 <0>         0.1270
     41 H17        -2.4294  -10.3697    0.3167 H         1 <0>         0.1266
     42 H18        -1.7744   -8.2123    1.2949 H         1 <0>         0.1309
     43 H19         0.4347   -0.3465   -0.8428 H         1 <0>         0.4295
@<TRIPOS>BOND
     1    1    2 1
     2    1   25 1
     3    1   26 1
     4    1   27 1
     5    2    6 1
     6    2    3 1
     7    2   43 1
     8    3    4 1
     9    3   28 1
    10    3   29 1
    11    4    5 1
    12    4   30 1
    13    4   31 1
    14    5    6 1
    15    5    7 1
    16    5   32 1
    17    6   33 1
    18    6   34 1
    19    7    8 1
    20    7   35 1
    21    7   36 1
    22    8    9 am
    23    8   37 1
    24    9   10 2
    25    9   11 1
    26   11   24 2
    27   11   12 1
    28   12   13 2
    29   12   38 1
    30   13   23 1
    31   13   14 1
    32   14   15 2
    33   15   16 1
    34   15   17 1
    35   17   22 ar
    36   17   18 ar
    37   18   19 ar
    38   18   39 1
    39   19   20 ar
    40   19   40 1
    41   20   21 ar
    42   20   41 1
    43   21   22 ar
    44   21   42 1
    45   22   23 1
    46   23   24 1
@<TRIPOS>MOLECULE
CHEMBL362762
   60    64     0     0     0
SMALL
USER_CHARGES

@<TRIPOS>ATOM
      1 C1         -0.0167    1.3791    0.0096 C.ar      1 <0>        -0.1082
      2 C2          1.1686    2.0923    0.0021 C.ar      1 <0>        -0.1171
      3 C3          2.3774    1.4266   -0.0130 C.ar      1 <0>        -0.1058
      4 C4          2.4025    0.0329   -0.0207 C.ar      1 <0>        -0.0652
      5 C5          1.2049   -0.6804   -0.0131 C.ar      1 <0>        -0.1057
      6 C6          0.0021   -0.0041    0.0020 C.ar      1 <0>        -0.1170
      7 C7          3.6982   -0.6881   -0.0375 C.ar      1 <0>        -0.0178
      8 C8          4.8947    0.0287   -0.0398 C.ar      1 <0>        -0.1111
      9 C9          6.0983   -0.6399   -0.0558 C.ar      1 <0>        -0.0948
     10 C10         6.1208   -2.0362   -0.0693 C.ar      1 <0>        -0.0866
     11 C11         4.9223   -2.7530   -0.0665 C.ar      1 <0>        -0.0942
     12 C12         3.7197   -2.0827   -0.0452 C.ar      1 <0>        -0.1108
     13 C13         7.4114   -2.7543   -0.0870 C.2       1 <0>        -0.0451
     14 C14         8.2094   -2.6514    0.9549 C.2       1 <0>        -0.1885
     15 C15         9.5382   -3.3457    1.0374 C.3       1 <0>         0.0334
     16 N1          9.9857   -3.7547   -0.2991 N.4       1 <0>        -0.3853
     17 C16         8.9148   -4.5288   -0.9466 C.3       1 <0>        -0.0032
     18 C17         7.7643   -3.5821   -1.2921 C.3       1 <0>        -0.1140
     19 C18        11.1908   -4.5864   -0.1808 C.3       1 <0>        -0.0125
     20 C19        12.3359   -3.7468    0.3891 C.3       1 <0>        -0.1327
     21 C20        13.5911   -4.6130    0.5123 C.3       1 <0>        -0.0715
     22 C21        14.7190   -3.7861    1.0736 C.2       1 <0>         0.3870
     23 N2         14.4878   -2.5400    1.3560 N.2       1 <0>        -0.5181
     24 C22        15.4540   -1.7350    1.8644 C.ar      1 <0>         0.1442
     25 C23        15.2062   -0.3947    2.1679 C.ar      1 <0>        -0.1091
     26 C24        16.2167    0.3861    2.6820 C.ar      1 <0>        -0.0696
     27 C25        17.4818   -0.1425    2.9034 C.ar      1 <0>        -0.1282
     28 C26        17.7509   -1.4617    2.6116 C.ar      1 <0>        -0.0398
     29 C27        16.7418   -2.2692    2.0908 C.ar      1 <0>        -0.1943
     30 C28        16.9701   -3.6837    1.7604 C.2       1 <0>         0.5500
     31 N3         15.9240   -4.3841    1.2634 N.am      1 <0>        -0.6534
     32 O1         18.0565   -4.2056    1.9313 O.2       1 <0>        -0.4961
     33 H1         -0.9603    1.9042    0.0260 H         1 <0>         0.1275
     34 H2          1.1480    3.1720    0.0078 H         1 <0>         0.1282
     35 H3          3.3022    1.9844   -0.0192 H         1 <0>         0.1254
     36 H4          1.2184   -1.7603   -0.0194 H         1 <0>         0.1255
     37 H5         -0.9264   -0.5557    0.0079 H         1 <0>         0.1282
     38 H6          4.8771    1.1085   -0.0293 H         1 <0>         0.1322
     39 H7          7.0246   -0.0847   -0.0583 H         1 <0>         0.1263
     40 H8          4.9387   -3.8328   -0.0770 H         1 <0>         0.1264
     41 H9          2.7928   -2.6369   -0.0386 H         1 <0>         0.1324
     42 H10         7.8944   -2.0398    1.7874 H         1 <0>         0.1508
     43 H11        10.2729   -2.6677    1.4718 H         1 <0>         0.1431
     44 H12         9.4456   -4.2271    1.6720 H         1 <0>         0.1384
     45 H13         9.2964   -4.9902   -1.8574 H         1 <0>         0.1377
     46 H14         8.5573   -5.3003   -0.2646 H         1 <0>         0.1328
     47 H15         6.8948   -4.1622   -1.6013 H         1 <0>         0.1250
     48 H16         8.0707   -2.9256   -2.1064 H         1 <0>         0.1073
     49 H17        10.9893   -5.4256    0.4850 H         1 <0>         0.1325
     50 H18        11.4708   -4.9624   -1.1648 H         1 <0>         0.1343
     51 H19        12.5375   -2.9076   -0.2767 H         1 <0>         0.1010
     52 H20        12.0560   -3.3708    1.3731 H         1 <0>         0.1008
     53 H21        13.3895   -5.4522    1.1780 H         1 <0>         0.1095
     54 H22        13.8711   -4.9890   -0.4718 H         1 <0>         0.1097
     55 H23        14.2264    0.0275    1.9997 H         1 <0>         0.1388
     56 H24        16.0234    1.4226    2.9158 H         1 <0>         0.1388
     57 H25        18.2615    0.4862    3.3074 H         1 <0>         0.1392
     58 H26        18.7366   -1.8672    2.7858 H         1 <0>         0.1419
     59 H27        16.0366   -5.3207    1.0375 H         1 <0>         0.4202
     60 H28        10.1918   -2.9359   -0.8514 H         1 <0>         0.4270
@<TRIPOS>BOND
     1    1    6 ar
     2    1    2 ar
     3    1   33 1
     4    2    3 ar
     5    2   34 1
     6    3    4 ar
     7    3   35 1
     8    4    5 ar
     9    4    7 1
    10    5    6 ar
    11    5   36 1
    12    6   37 1
    13    7   12 ar
    14    7    8 ar
    15    8    9 ar
    16    8   38 1
    17    9   10 ar
    18    9   39 1
    19   10   11 ar
    20   10   13 1
    21   11   12 ar
    22   11   40 1
    23   12   41 1
    24   13   18 1
    25   13   14 2
    26   14   15 1
    27   14   42 1
    28   15   16 1
    29   15   43 1
    30   15   44 1
    31   16   17 1
    32   16   19 1
    33   16   60 1
    34   17   18 1
    35   17   45 1
    36   17   46 1
    37   18   47 1
    38   18   48 1
    39   19   20 1
    40   19   49 1
    41   19   50 1
    42   20   21 1
    43   20   51 1
    44   20   52 1
    45   21   53 1
    46   21   54 1
    47   21   22 1
    48   22   23 2
    49   22   31 1
    50   23   24 1
    51   24   29 ar
    52   24   25 ar
    53   25   26 ar
    54   25   55 1
    55   26   27 ar
    56   26   56 1
    57   27   28 ar
    58   27   57 1
    59   28   29 ar
    60   28   58 1
    61   29   30 1
    62   30   32 2
    63   30   31 am
    64   31   59 1
@<TRIPOS>MOLECULE
CHEMBL195966
   45    48     0     0     0
SMALL
USER_CHARGES

@<TRIPOS>ATOM
      1 C1         -0.0178    1.4648    0.0101 C.3       1 <0>         0.0220
      2 N1          0.0021   -0.0041    0.0020 N.3       1 <0>        -0.5347
      3 C2          0.6179   -0.5160   -1.2315 C.3       1 <0>         0.0320
      4 C3          0.6078   -2.0223   -1.2035 C.2       1 <0>         0.5294
      5 O1          0.5605   -2.6416   -2.2446 O.2       1 <0>        -0.4789
      6 N2          0.6512   -2.6865   -0.0353 N.am      1 <0>        -0.5215
      7 C4          0.6947   -2.0340    1.1394 C.2       1 <0>         0.5276
      8 O2          0.7245   -2.6637    2.1749 O.2       1 <0>        -0.4746
      9 C5          0.7070   -0.5281    1.1816 C.3       1 <0>         0.0323
     10 C6          0.6505   -4.0894   -0.0423 C.ar      1 <0>         0.0810
     11 C7          1.8504   -4.7852   -0.0848 C.ar      1 <0>        -0.0531
     12 C8          1.8470   -6.1666   -0.0911 C.ar      1 <0>        -0.0797
     13 C9          0.6496   -6.8575   -0.0556 C.ar      1 <0>        -0.0594
     14 C10        -0.5484   -6.1689   -0.0133 C.ar      1 <0>        -0.1437
     15 C11        -0.5520   -4.7856   -0.0010 C.ar      1 <0>         0.1258
     16 F1         -1.7223   -4.1124    0.0460 F         1 <0>        -0.1292
     17 C12         3.1502   -6.9219   -0.1371 C.3       1 <0>        -0.0155
     18 C13         3.6310   -7.1803    1.2675 C.2       1 <0>         0.1346
     19 C14         4.8867   -7.8972    1.4905 C.ar      1 <0>        -0.0592
     20 C15         5.6701   -8.3585    0.4309 C.ar      1 <0>        -0.0980
     21 C16         6.8359   -9.0231    0.6907 C.ar      1 <0>        -0.0872
     22 C17         7.2539   -9.2474    1.9961 C.ar      1 <0>        -0.1109
     23 C18         6.5013   -8.8041    3.0615 C.ar      1 <0>        -0.0544
     24 C19         5.3089   -8.1230    2.8206 C.ar      1 <0>        -0.1255
     25 C20         4.4629   -7.6248    3.9121 C.2       1 <0>         0.5282
     26 N3          3.3216   -6.9744    3.6035 N.am      1 <0>        -0.5320
     27 N4          2.9328   -6.7615    2.2806 N.2       1 <0>        -0.2168
     28 O3          4.7850   -7.7956    5.0744 O.2       1 <0>        -0.5209
     29 H1          1.0047    1.8421    0.0024 H         1 <0>         0.0396
     30 H2         -0.5450    1.8259   -0.8730 H         1 <0>         0.0831
     31 H3         -0.5280    1.8163    0.9069 H         1 <0>         0.0832
     32 H4          0.0520   -0.1642   -2.0941 H         1 <0>         0.1327
     33 H5          1.6459   -0.1601   -1.3000 H         1 <0>         0.0885
     34 H6          1.7374   -0.1725    1.1777 H         1 <0>         0.0881
     35 H7          0.2063   -0.1851    2.0870 H         1 <0>         0.1323
     36 H8          2.7864   -4.2471   -0.1132 H         1 <0>         0.1317
     37 H9          0.6504   -7.9375   -0.0614 H         1 <0>         0.1395
     38 H10        -1.4820   -6.7113    0.0139 H         1 <0>         0.1454
     39 H11         3.0018   -7.8717   -0.6508 H         1 <0>         0.1125
     40 H12         3.8936   -6.3315   -0.6728 H         1 <0>         0.1084
     41 H13         5.3562   -8.1915   -0.5889 H         1 <0>         0.1420
     42 H14         7.4403   -9.3791   -0.1306 H         1 <0>         0.1367
     43 H15         8.1785   -9.7751    2.1779 H         1 <0>         0.1374
     44 H16         6.8324   -8.9819    4.0740 H         1 <0>         0.1435
     45 H17         2.7585   -6.6428    4.3203 H         1 <0>         0.4375
@<TRIPOS>BOND
     1    1    2 1
     2    1   29 1
     3    1   30 1
     4    1   31 1
     5    2    9 1
     6    2    3 1
     7    3    4 1
     8    3   32 1
     9    3   33 1
    10    4    5 2
    11    4    6 am
    12    6    7 am
    13    6   10 1
    14    7    8 2
    15    7    9 1
    16    9   34 1
    17    9   35 1
    18   10   15 ar
    19   10   11 ar
    20   11   12 ar
    21   11   36 1
    22   12   13 ar
    23   12   17 1
    24   13   14 ar
    25   13   37 1
    26   14   15 ar
    27   14   38 1
    28   15   16 1
    29   17   18 1
    30   17   39 1
    31   17   40 1
    32   18   27 2
    33   18   19 1
    34   19   24 ar
    35   19   20 ar
    36   20   21 ar
    37   20   41 1
    38   21   22 ar
    39   21   42 1
    40   22   23 ar
    41   22   43 1
    42   23   24 ar
    43   23   44 1
    44   24   25 1
    45   25   26 am
    46   25   28 2
    47   26   27 1
    48   26   45 1
@<TRIPOS>MOLECULE
CHEMBL195966__1
   46    49     0     0     0
SMALL
USER_CHARGES

@<TRIPOS>ATOM
      1 C1         -0.0178    1.4648    0.0101 C.3       1 <0>        -0.0489
      2 N1          0.0021   -0.0041    0.0020 N.4       1 <0>        -0.3883
      3 C2          0.6976   -0.4795   -1.2025 C.3       1 <0>        -0.0181
      4 C3          0.7562   -1.9847   -1.1844 C.2       1 <0>         0.4971
      5 O1          0.7719   -2.5986   -2.2296 O.2       1 <0>        -0.4151
      6 N2          0.7907   -2.6529   -0.0173 N.am      1 <0>        -0.5184
      7 C4          0.7710   -1.9974    1.1572 C.2       1 <0>         0.4949
      8 O2          0.8003   -2.6225    2.1955 O.2       1 <0>        -0.4106
      9 C5          0.7128   -0.4924    1.1924 C.3       1 <0>        -0.0182
     10 C6          0.8485   -4.0546   -0.0253 C.ar      1 <0>         0.0561
     11 C7          2.0771   -4.6999   -0.0305 C.ar      1 <0>        -0.0474
     12 C8          2.1313   -6.0803   -0.0378 C.ar      1 <0>        -0.0689
     13 C9          0.9631   -6.8204   -0.0404 C.ar      1 <0>        -0.0450
     14 C10        -0.2632   -6.1822   -0.0353 C.ar      1 <0>        -0.1368
     15 C11        -0.3247   -4.8003   -0.0221 C.ar      1 <0>         0.1268
     16 F1         -1.5229   -4.1763   -0.0114 F         1 <0>        -0.1335
     17 C12         3.4656   -6.7807   -0.0435 C.3       1 <0>        -0.0195
     18 C13         3.9125   -7.0217    1.3754 C.2       1 <0>         0.1372
     19 C14         5.1893   -7.6863    1.6372 C.ar      1 <0>        -0.0651
     20 C15         6.0239   -8.1126    0.6024 C.ar      1 <0>        -0.0982
     21 C16         7.2077   -8.7287    0.8981 C.ar      1 <0>        -0.0854
     22 C17         7.5936   -8.9379    2.2159 C.ar      1 <0>        -0.1059
     23 C18         6.7902   -8.5284    3.2575 C.ar      1 <0>        -0.0536
     24 C19         5.5786   -7.8969    2.9797 C.ar      1 <0>        -0.1245
     25 C20         4.6789   -7.4364    4.0445 C.2       1 <0>         0.5286
     26 N3          3.5218   -6.8334    3.7006 N.am      1 <0>        -0.5337
     27 N4          3.1660   -6.6343    2.3664 N.2       1 <0>        -0.2269
     28 O3          4.9712   -7.5960    5.2162 O.2       1 <0>        -0.5140
     29 H1          1.0047    1.8421    0.0024 H         1 <0>         0.1326
     30 H2         -0.5450    1.8259   -0.8730 H         1 <0>         0.1373
     31 H3         -0.5280    1.8163    0.9069 H         1 <0>         0.1370
     32 H4          0.1577   -0.1472   -2.0891 H         1 <0>         0.1842
     33 H5          1.7102   -0.0764   -1.2206 H         1 <0>         0.1774
     34 H6          1.7255   -0.0895    1.2021 H         1 <0>         0.1771
     35 H7          0.1841   -0.1698    2.0894 H         1 <0>         0.1839
     36 H8          2.9903   -4.1233   -0.0292 H         1 <0>         0.1366
     37 H9          1.0090   -7.8994   -0.0469 H         1 <0>         0.1474
     38 H10        -1.1738   -6.7629   -0.0377 H         1 <0>         0.1524
     39 H11         3.3729   -7.7349   -0.5622 H         1 <0>         0.1169
     40 H12         4.2002   -6.1589   -0.5551 H         1 <0>         0.1111
     41 H13         5.7355   -7.9567   -0.4267 H         1 <0>         0.1414
     42 H14         7.8518   -9.0576    0.0960 H         1 <0>         0.1387
     43 H15         8.5331   -9.4272    2.4263 H         1 <0>         0.1402
     44 H16         7.0965   -8.6944    4.2797 H         1 <0>         0.1453
     45 H17         2.9231   -6.5269    4.3996 H         1 <0>         0.4366
     46 H18        -0.9442   -0.3543    0.0067 H         1 <0>         0.4393
@<TRIPOS>BOND
     1    1    2 1
     2    1   29 1
     3    1   30 1
     4    1   31 1
     5    2    9 1
     6    2    3 1
     7    2   46 1
     8    3    4 1
     9    3   32 1
    10    3   33 1
    11    4    5 2
    12    4    6 am
    13    6    7 am
    14    6   10 1
    15    7    8 2
    16    7    9 1
    17    9   34 1
    18    9   35 1
    19   10   15 ar
    20   10   11 ar
    21   11   12 ar
    22   11   36 1
    23   12   13 ar
    24   12   17 1
    25   13   14 ar
    26   13   37 1
    27   14   15 ar
    28   14   38 1
    29   15   16 1
    30   17   18 1
    31   17   39 1
    32   17   40 1
    33   18   27 2
    34   18   19 1
    35   19   24 ar
    36   19   20 ar
    37   20   21 ar
    38   20   41 1
    39   21   22 ar
    40   21   42 1
    41   22   23 ar
    42   22   43 1
    43   23   24 ar
    44   23   44 1
    45   24   25 1
    46   25   26 am
    47   25   28 2
    48   26   27 1
    49   26   45 1
@<TRIPOS>MOLECULE
CHEMBL83224
   28    30     0     0     0
SMALL
USER_CHARGES

@<TRIPOS>ATOM
      1 C1         -0.0165    1.3630    0.0095 C.ar      1 <0>        -0.0752
      2 C2          1.1651    2.0933    0.0022 C.ar      1 <0>        -0.1145
      3 C3          2.3791    1.4634   -0.0123 C.ar      1 <0>        -0.0475
      4 C4          2.4275    0.0699   -0.0198 C.ar      1 <0>        -0.1387
      5 C5          1.2273   -0.6738   -0.0134 C.ar      1 <0>        -0.0135
      6 C6          0.0021   -0.0041    0.0020 C.ar      1 <0>        -0.1198
      7 C7          1.3036   -2.1398   -0.0251 C.2       1 <0>        -0.1360
      8 C8          2.5015   -2.7409   -0.0430 C.2       1 <0>         0.0973
      9 N1          3.6672   -2.0120   -0.0433 N.am      1 <0>        -0.6316
     10 C9          3.6943   -0.6687   -0.0338 C.2       1 <0>         0.5542
     11 O1          4.7564   -0.0728   -0.0364 O.2       1 <0>        -0.4973
     12 C10         2.6304   -4.2445   -0.0718 C.3       1 <0>         0.0380
     13 N2          1.3930   -4.8850    0.3780 N.4       1 <0>        -0.4993
     14 C11         0.2739   -4.3690   -0.4265 C.3       1 <0>        -0.0066
     15 C12         0.0148   -2.9209   -0.0115 C.3       1 <0>        -0.0954
     16 H1         -0.9632    1.8825    0.0259 H         1 <0>         0.1381
     17 H2          1.1246    3.1725    0.0076 H         1 <0>         0.1404
     18 H3          3.2921    2.0403   -0.0181 H         1 <0>         0.1452
     19 H4         -0.9231   -0.5613    0.0076 H         1 <0>         0.1367
     20 H5          2.8503   -4.5656   -1.0899 H         1 <0>         0.1548
     21 H6          3.4483   -4.5464    0.5825 H         1 <0>         0.1506
     22 H7          1.4653   -5.8839    0.2557 H         1 <0>         0.4429
     23 H8          0.5332   -4.4075   -1.4845 H         1 <0>         0.1388
     24 H9         -0.6175   -4.9690   -0.2437 H         1 <0>         0.1477
     25 H10        -0.4082   -2.9029    0.9930 H         1 <0>         0.1088
     26 H11        -0.6908   -2.4663   -0.7069 H         1 <0>         0.1283
     27 H12         4.5108   -2.4907   -0.0504 H         1 <0>         0.4176
     28 H13         1.2363   -4.6718    1.3517 H         1 <0>         0.4358
@<TRIPOS>BOND
     1    1    6 ar
     2    1    2 ar
     3    1   16 1
     4    2    3 ar
     5    2   17 1
     6    3    4 ar
     7    3   18 1
     8    4   10 1
     9    4    5 ar
    10    5    6 ar
    11    5    7 1
    12    6   19 1
    13    7   15 1
    14    7    8 2
    15    8    9 1
    16    8   12 1
    17    9   10 am
    18    9   27 1
    19   10   11 2
    20   12   13 1
    21   12   20 1
    22   12   21 1
    23   13   14 1
    24   13   22 1
    25   13   28 1
    26   14   15 1
    27   14   23 1
    28   14   24 1
    29   15   25 1
    30   15   26 1
@<TRIPOS>MOLECULE
CHEMBL83224__1
   27    29     0     0     0
SMALL
USER_CHARGES

@<TRIPOS>ATOM
      1 C1         -0.0165    1.3631    0.0095 C.ar      1 <0>        -0.0804
      2 C2          1.1650    2.0934    0.0022 C.ar      1 <0>        -0.1373
      3 C3          2.3791    1.4635   -0.0121 C.ar      1 <0>        -0.0475
      4 C4          2.4273    0.0700   -0.0197 C.ar      1 <0>        -0.1546
      5 C5          1.2274   -0.6737   -0.0134 C.ar      1 <0>         0.0090
      6 C6          0.0021   -0.0041    0.0020 C.ar      1 <0>        -0.1269
      7 C7          1.3028   -2.1403   -0.0244 C.2       1 <0>        -0.1477
      8 C8          2.5006   -2.7408   -0.0425 C.2       1 <0>         0.1387
      9 N1          3.6664   -2.0117   -0.0428 N.am      1 <0>        -0.6317
     10 C9          3.6942   -0.6686   -0.0336 C.2       1 <0>         0.5514
     11 O1          4.7564   -0.0728   -0.0373 O.2       1 <0>        -0.5278
     12 C10         2.6336   -4.2444   -0.0726 C.3       1 <0>         0.0907
     13 N2          1.3874   -4.8868    0.3515 N.3       1 <0>        -0.6774
     14 C11         0.2580   -4.3635   -0.4349 C.3       1 <0>         0.0485
     15 C12         0.0114   -2.9168   -0.0084 C.3       1 <0>        -0.0587
     16 H1         -0.9632    1.8825    0.0259 H         1 <0>         0.1298
     17 H2          1.1245    3.1726    0.0074 H         1 <0>         0.1310
     18 H3          3.2921    2.0404   -0.0178 H         1 <0>         0.1376
     19 H4         -0.9230   -0.5613    0.0083 H         1 <0>         0.1345
     20 H5          2.8738   -4.5627   -1.0870 H         1 <0>         0.0592
     21 H6          3.4386   -4.5465    0.5973 H         1 <0>         0.0973
     22 H7          1.4515   -5.8903    0.2686 H         1 <0>         0.3557
     23 H8          0.5018   -4.3976   -1.4967 H         1 <0>         0.0416
     24 H9         -0.6330   -4.9610   -0.2419 H         1 <0>         0.0880
     25 H10        -0.4054   -2.9034    0.9987 H         1 <0>         0.0848
     26 H11        -0.6967   -2.4536   -0.6956 H         1 <0>         0.0804
     27 H12         4.5100   -2.4905   -0.0500 H         1 <0>         0.4118
@<TRIPOS>BOND
     1    1    6 ar
     2    1    2 ar
     3    1   16 1
     4    2    3 ar
     5    2   17 1
     6    3    4 ar
     7    3   18 1
     8    4   10 1
     9    4    5 ar
    10    5    6 ar
    11    5    7 1
    12    6   19 1
    13    7   15 1
    14    7    8 2
    15    8    9 1
    16    8   12 1
    17    9   10 am
    18    9   27 1
    19   10   11 2
    20   12   13 1
    21   12   20 1
    22   12   21 1
    23   13   14 1
    24   13   22 1
    25   14   15 1
    26   14   23 1
    27   14   24 1
    28   15   25 1
    29   15   26 1
@<TRIPOS>MOLECULE
CHEMBL193336
   56    59     0     0     0
SMALL
USER_CHARGES

@<TRIPOS>ATOM
      1 C1         -0.0167    1.3792    0.0096 C.ar      1 <0>        -0.1029
      2 C2          1.1683    2.0931    0.0021 C.ar      1 <0>        -0.1154
      3 C3          2.3774    1.4286   -0.0134 C.ar      1 <0>        -0.1018
      4 C4          2.4032    0.0335   -0.0212 C.ar      1 <0>        -0.0835
      5 C5          1.2045   -0.6806   -0.0131 C.ar      1 <0>        -0.1012
      6 C6          0.0021   -0.0041    0.0020 C.ar      1 <0>        -0.1151
      7 C7          3.6950   -0.6848   -0.0384 C.2       1 <0>        -0.0463
      8 C8          4.4943   -0.5772    1.0009 C.2       1 <0>        -0.1880
      9 C9          5.8233   -1.2710    1.0843 C.3       1 <0>         0.0340
     10 N1          6.2689   -1.6856   -0.2511 N.4       1 <0>        -0.3851
     11 C10         5.1971   -2.4623   -0.8938 C.3       1 <0>        -0.0033
     12 C11         4.0456   -1.5174   -1.2408 C.3       1 <0>        -0.1137
     13 C12         7.4741   -2.5169   -0.1311 C.3       1 <0>        -0.0126
     14 C13         8.6201   -1.6750    0.4337 C.3       1 <0>        -0.1319
     15 C14         9.8754   -2.5408    0.5587 C.3       1 <0>        -0.0661
     16 C15        11.0042   -1.7116    1.1150 C.2       1 <0>         0.3707
     17 N2         10.7978   -0.4711    1.4035 N.2       1 <0>        -0.5309
     18 C16        11.8801    0.3557    1.9320 C.3       1 <0>         0.0814
     19 C17        11.5747    1.8365    1.7521 C.3       1 <0>        -0.0978
     20 C18        11.5096    2.1843    0.2640 C.3       1 <0>        -0.1149
     21 C19        12.8558    1.8526   -0.3853 C.3       1 <0>        -0.1206
     22 C20        13.1283    0.3557   -0.2390 C.3       1 <0>        -0.1055
     23 C21        13.1936   -0.0208    1.2437 C.3       1 <0>        -0.1256
     24 C22        13.3497   -1.5250    1.3420 C.2       1 <0>         0.5218
     25 O1         14.4471   -2.0294    1.4493 O.2       1 <0>        -0.4931
     26 N3         12.2364   -2.2915    1.3122 N.am      1 <0>        -0.6965
     27 H1         -0.9604    1.9041    0.0260 H         1 <0>         0.1296
     28 H2          1.1469    3.1729    0.0082 H         1 <0>         0.1300
     29 H3          3.3018    1.9870   -0.0200 H         1 <0>         0.1240
     30 H4          1.2178   -1.7605   -0.0194 H         1 <0>         0.1241
     31 H5         -0.9265   -0.5556    0.0079 H         1 <0>         0.1301
     32 H6          4.1807    0.0380    1.8312 H         1 <0>         0.1504
     33 H7          6.5585   -0.5912    1.5147 H         1 <0>         0.1431
     34 H8          5.7318   -2.1497    1.7228 H         1 <0>         0.1382
     35 H9          5.5771   -2.9272   -1.8035 H         1 <0>         0.1376
     36 H10         4.8408   -3.2312   -0.2083 H         1 <0>         0.1327
     37 H11         3.1757   -2.0990   -1.5459 H         1 <0>         0.1247
     38 H12         4.3502   -0.8642   -2.0585 H         1 <0>         0.1070
     39 H13         7.2735   -3.3533    0.5384 H         1 <0>         0.1319
     40 H14         7.7527   -2.8970   -1.1140 H         1 <0>         0.1334
     41 H15         8.8208   -0.8386   -0.2358 H         1 <0>         0.0986
     42 H16         8.3416   -1.2949    1.4166 H         1 <0>         0.0994
     43 H17         9.6748   -3.3772    1.2282 H         1 <0>         0.1024
     44 H18        10.1540   -2.9209   -0.4242 H         1 <0>         0.1036
     45 H19        11.9778    0.1613    3.0000 H         1 <0>         0.0815
     46 H20        10.6174    2.0673    2.2193 H         1 <0>         0.0746
     47 H21        12.3579    2.4272    2.2272 H         1 <0>         0.0748
     48 H22        10.7214    1.6015   -0.2126 H         1 <0>         0.0652
     49 H23        11.3003    3.2476    0.1468 H         1 <0>         0.0673
     50 H24        12.8249    2.1156   -1.4427 H         1 <0>         0.0710
     51 H25        13.6471    2.4168    0.1083 H         1 <0>         0.0701
     52 H26        12.3280   -0.2066   -0.7203 H         1 <0>         0.0623
     53 H27        14.0775    0.1122   -0.7164 H         1 <0>         0.0742
     54 H28        14.0289    0.4887    1.7241 H         1 <0>         0.1228
     55 H29        12.3056   -3.2522    1.4266 H         1 <0>         0.4128
     56 H30         6.4742   -0.8691   -0.8071 H         1 <0>         0.4266
@<TRIPOS>BOND
     1    1    6 ar
     2    1    2 ar
     3    1   27 1
     4    2    3 ar
     5    2   28 1
     6    3    4 ar
     7    3   29 1
     8    4    5 ar
     9    4    7 1
    10    5    6 ar
    11    5   30 1
    12    6   31 1
    13    7   12 1
    14    7    8 2
    15    8    9 1
    16    8   32 1
    17    9   10 1
    18    9   33 1
    19    9   34 1
    20   10   11 1
    21   10   13 1
    22   10   56 1
    23   11   12 1
    24   11   35 1
    25   11   36 1
    26   12   37 1
    27   12   38 1
    28   13   14 1
    29   13   39 1
    30   13   40 1
    31   14   15 1
    32   14   41 1
    33   14   42 1
    34   15   16 1
    35   15   43 1
    36   15   44 1
    37   16   26 1
    38   16   17 2
    39   17   18 1
    40   18   23 1
    41   18   19 1
    42   18   45 1
    43   19   20 1
    44   19   46 1
    45   19   47 1
    46   20   21 1
    47   20   48 1
    48   20   49 1
    49   21   22 1
    50   21   50 1
    51   21   51 1
    52   22   23 1
    53   22   52 1
    54   22   53 1
    55   23   24 1
    56   23   54 1
    57   24   25 2
    58   24   26 am
    59   26   55 1
@<TRIPOS>MOLECULE
CHEMBL193336__1
   56    59     0     0     0
SMALL
USER_CHARGES

@<TRIPOS>ATOM
      1 C1         -0.0167    1.3792    0.0096 C.ar      1 <0>        -0.1029
      2 C2          1.1683    2.0931    0.0021 C.ar      1 <0>        -0.1154
      3 C3          2.3774    1.4286   -0.0134 C.ar      1 <0>        -0.1019
      4 C4          2.4032    0.0335   -0.0212 C.ar      1 <0>        -0.0834
      5 C5          1.2045   -0.6806   -0.0131 C.ar      1 <0>        -0.1012
      6 C6          0.0021   -0.0041    0.0020 C.ar      1 <0>        -0.1151
      7 C7          3.6950   -0.6848   -0.0384 C.2       1 <0>        -0.0464
      8 C8          4.4943   -0.5772    1.0009 C.2       1 <0>        -0.1879
      9 C9          5.8233   -1.2710    1.0843 C.3       1 <0>         0.0338
     10 N1          6.2689   -1.6856   -0.2511 N.4       1 <0>        -0.3852
     11 C10         5.1971   -2.4623   -0.8938 C.3       1 <0>        -0.0033
     12 C11         4.0456   -1.5174   -1.2408 C.3       1 <0>        -0.1137
     13 C12         7.4741   -2.5169   -0.1311 C.3       1 <0>        -0.0126
     14 C13         8.6201   -1.6750    0.4337 C.3       1 <0>        -0.1315
     15 C14         9.8754   -2.5408    0.5587 C.3       1 <0>        -0.0684
     16 C15        11.0042   -1.7116    1.1150 C.2       1 <0>         0.3759
     17 N2         10.7856   -0.4721    1.3996 N.2       1 <0>        -0.5417
     18 C16        11.8468    0.3483    1.9685 C.3       1 <0>         0.0808
     19 C17        11.6173    1.8390    1.7428 C.3       1 <0>        -0.0930
     20 C18        12.7368    2.6171    2.4442 C.3       1 <0>        -0.1245
     21 C19        14.0984    2.1984    1.8906 C.3       1 <0>        -0.1219
     22 C20        14.3071    0.6913    2.0785 C.3       1 <0>        -0.1014
     23 C21        13.1894   -0.0486    1.3495 C.3       1 <0>        -0.1310
     24 C22        13.3406   -1.5422    1.4579 C.2       1 <0>         0.5225
     25 O1         14.4203   -2.0484    1.6774 O.2       1 <0>        -0.4869
     26 N3         12.2296   -2.3024    1.3072 N.am      1 <0>        -0.6961
     27 H1         -0.9604    1.9041    0.0260 H         1 <0>         0.1296
     28 H2          1.1469    3.1729    0.0082 H         1 <0>         0.1300
     29 H3          3.3018    1.9870   -0.0200 H         1 <0>         0.1240
     30 H4          1.2178   -1.7605   -0.0194 H         1 <0>         0.1242
     31 H5         -0.9265   -0.5556    0.0079 H         1 <0>         0.1301
     32 H6          4.1807    0.0380    1.8312 H         1 <0>         0.1504
     33 H7          6.5585   -0.5912    1.5147 H         1 <0>         0.1431
     34 H8          5.7318   -2.1497    1.7228 H         1 <0>         0.1383
     35 H9          5.5771   -2.9272   -1.8035 H         1 <0>         0.1377
     36 H10         4.8408   -3.2312   -0.2083 H         1 <0>         0.1326
     37 H11         3.1757   -2.0990   -1.5459 H         1 <0>         0.1247
     38 H12         4.3502   -0.8642   -2.0585 H         1 <0>         0.1071
     39 H13         7.2735   -3.3533    0.5384 H         1 <0>         0.1318
     40 H14         7.7527   -2.8970   -1.1140 H         1 <0>         0.1335
     41 H15         8.8208   -0.8386   -0.2358 H         1 <0>         0.0989
     42 H16         8.3416   -1.2949    1.4166 H         1 <0>         0.0991
     43 H17         9.6748   -3.3772    1.2282 H         1 <0>         0.1031
     44 H18        10.1540   -2.9209   -0.4242 H         1 <0>         0.1040
     45 H19        11.8900    0.1709    3.0431 H         1 <0>         0.0834
     46 H20        11.6356    2.0544    0.6745 H         1 <0>         0.0678
     47 H21        10.6531    2.1283    2.1608 H         1 <0>         0.0752
     48 H22        12.5927    3.6848    2.2790 H         1 <0>         0.0740
     49 H23        12.7035    2.4119    3.5142 H         1 <0>         0.0659
     50 H24        14.1461    2.4398    0.8288 H         1 <0>         0.0662
     51 H25        14.8842    2.7400    2.4172 H         1 <0>         0.0750
     52 H26        15.2712    0.4005    1.6615 H         1 <0>         0.0818
     53 H27        14.2758    0.4470    3.1403 H         1 <0>         0.0712
     54 H28        13.1980    0.2320    0.2962 H         1 <0>         0.1103
     55 H29        12.2993   -3.2696    1.3314 H         1 <0>         0.4127
     56 H30         6.4742   -0.8691   -0.8071 H         1 <0>         0.4267
@<TRIPOS>BOND
     1    1    6 ar
     2    1    2 ar
     3    1   27 1
     4    2    3 ar
     5    2   28 1
     6    3    4 ar
     7    3   29 1
     8    4    5 ar
     9    4    7 1
    10    5    6 ar
    11    5   30 1
    12    6   31 1
    13    7   12 1
    14    7    8 2
    15    8    9 1
    16    8   32 1
    17    9   10 1
    18    9   33 1
    19    9   34 1
    20   10   11 1
    21   10   13 1
    22   10   56 1
    23   11   12 1
    24   11   35 1
    25   11   36 1
    26   12   37 1
    27   12   38 1
    28   13   14 1
    29   13   39 1
    30   13   40 1
    31   14   15 1
    32   14   41 1
    33   14   42 1
    34   15   16 1
    35   15   43 1
    36   15   44 1
    37   16   26 1
    38   16   17 2
    39   17   18 1
    40   18   23 1
    41   18   19 1
    42   18   45 1
    43   19   20 1
    44   19   46 1
    45   19   47 1
    46   20   21 1
    47   20   48 1
    48   20   49 1
    49   21   22 1
    50   21   50 1
    51   21   51 1
    52   22   23 1
    53   22   52 1
    54   22   53 1
    55   23   24 1
    56   23   54 1
    57   24   25 2
    58   24   26 am
    59   26   55 1
@<TRIPOS>MOLECULE
CHEMBL193336__2
   56    59     0     0     0
SMALL
USER_CHARGES

@<TRIPOS>ATOM
      1 C1         -0.0167    1.3792    0.0096 C.ar      1 <0>        -0.1029
      2 C2          1.1683    2.0931    0.0021 C.ar      1 <0>        -0.1154
      3 C3          2.3774    1.4286   -0.0134 C.ar      1 <0>        -0.1019
      4 C4          2.4032    0.0335   -0.0212 C.ar      1 <0>        -0.0835
      5 C5          1.2045   -0.6806   -0.0131 C.ar      1 <0>        -0.1012
      6 C6          0.0021   -0.0041    0.0020 C.ar      1 <0>        -0.1151
      7 C7          3.6950   -0.6848   -0.0384 C.2       1 <0>        -0.0464
      8 C8          4.4943   -0.5772    1.0009 C.2       1 <0>        -0.1879
      9 C9          5.8233   -1.2710    1.0843 C.3       1 <0>         0.0338
     10 N1          6.2689   -1.6856   -0.2511 N.4       1 <0>        -0.3852
     11 C10         5.1971   -2.4623   -0.8938 C.3       1 <0>        -0.0033
     12 C11         4.0456   -1.5174   -1.2408 C.3       1 <0>        -0.1137
     13 C12         7.4741   -2.5169   -0.1311 C.3       1 <0>        -0.0126
     14 C13         8.6201   -1.6750    0.4337 C.3       1 <0>        -0.1316
     15 C14         9.8754   -2.5408    0.5587 C.3       1 <0>        -0.0683
     16 C15        11.0042   -1.7116    1.1150 C.2       1 <0>         0.3761
     17 N2         10.7856   -0.4721    1.3996 N.2       1 <0>        -0.5416
     18 C16        11.8636    0.3647    1.9101 C.3       1 <0>         0.0806
     19 C17        11.3482    1.5765    2.6793 C.3       1 <0>        -0.0929
     20 C18        12.5476    2.4325    3.1025 C.3       1 <0>        -0.1246
     21 C19        13.4995    1.6143    3.9743 C.3       1 <0>        -0.1218
     22 C20        13.9806    0.3729    3.2142 C.3       1 <0>        -0.1015
     23 C21        12.7638   -0.4637    2.8303 C.3       1 <0>        -0.1314
     24 C22        13.1545   -1.7238    2.1057 C.2       1 <0>         0.5226
     25 O1         14.2594   -2.2054    2.2373 O.2       1 <0>        -0.4873
     26 N3         12.2296   -2.3024    1.3072 N.am      1 <0>        -0.6953
     27 H1         -0.9604    1.9041    0.0260 H         1 <0>         0.1296
     28 H2          1.1469    3.1729    0.0082 H         1 <0>         0.1300
     29 H3          3.3018    1.9870   -0.0200 H         1 <0>         0.1240
     30 H4          1.2178   -1.7605   -0.0194 H         1 <0>         0.1241
     31 H5         -0.9265   -0.5556    0.0079 H         1 <0>         0.1301
     32 H6          4.1807    0.0380    1.8312 H         1 <0>         0.1504
     33 H7          6.5585   -0.5912    1.5147 H         1 <0>         0.1431
     34 H8          5.7318   -2.1497    1.7228 H         1 <0>         0.1382
     35 H9          5.5771   -2.9272   -1.8035 H         1 <0>         0.1377
     36 H10         4.8408   -3.2312   -0.2083 H         1 <0>         0.1326
     37 H11         3.1757   -2.0990   -1.5459 H         1 <0>         0.1247
     38 H12         4.3502   -0.8642   -2.0585 H         1 <0>         0.1071
     39 H13         7.2735   -3.3533    0.5384 H         1 <0>         0.1317
     40 H14         7.7527   -2.8970   -1.1140 H         1 <0>         0.1336
     41 H15         8.8208   -0.8386   -0.2358 H         1 <0>         0.0991
     42 H16         8.3416   -1.2949    1.4166 H         1 <0>         0.0991
     43 H17         9.6748   -3.3772    1.2282 H         1 <0>         0.1040
     44 H18        10.1540   -2.9209   -0.4242 H         1 <0>         0.1033
     45 H19        12.4573    0.7241    1.0695 H         1 <0>         0.0835
     46 H20        10.6879    2.1622    2.0397 H         1 <0>         0.0752
     47 H21        10.8051    1.2444    3.5641 H         1 <0>         0.0677
     48 H22        13.0772    2.7764    2.2140 H         1 <0>         0.0659
     49 H23        12.1940    3.2960    3.6660 H         1 <0>         0.0740
     50 H24        14.3590    2.2278    4.2444 H         1 <0>         0.0749
     51 H25        12.9813    1.3038    4.8815 H         1 <0>         0.0661
     52 H26        14.5134    0.6787    2.3138 H         1 <0>         0.0711
     53 H27        14.6415   -0.2136    3.8524 H         1 <0>         0.0817
     54 H28        12.2109   -0.7308    3.7309 H         1 <0>         0.1102
     55 H29        12.4350   -3.1403    0.8636 H         1 <0>         0.4125
     56 H30         6.4742   -0.8691   -0.8071 H         1 <0>         0.4267
@<TRIPOS>BOND
     1    1    6 ar
     2    1    2 ar
     3    1   27 1
     4    2    3 ar
     5    2   28 1
     6    3    4 ar
     7    3   29 1
     8    4    5 ar
     9    4    7 1
    10    5    6 ar
    11    5   30 1
    12    6   31 1
    13    7   12 1
    14    7    8 2
    15    8    9 1
    16    8   32 1
    17    9   10 1
    18    9   33 1
    19    9   34 1
    20   10   11 1
    21   10   13 1
    22   10   56 1
    23   11   12 1
    24   11   35 1
    25   11   36 1
    26   12   37 1
    27   12   38 1
    28   13   14 1
    29   13   39 1
    30   13   40 1
    31   14   15 1
    32   14   41 1
    33   14   42 1
    34   15   16 1
    35   15   43 1
    36   15   44 1
    37   16   26 1
    38   16   17 2
    39   17   18 1
    40   18   23 1
    41   18   19 1
    42   18   45 1
    43   19   20 1
    44   19   46 1
    45   19   47 1
    46   20   21 1
    47   20   48 1
    48   20   49 1
    49   21   22 1
    50   21   50 1
    51   21   51 1
    52   22   23 1
    53   22   52 1
    54   22   53 1
    55   23   24 1
    56   23   54 1
    57   24   25 2
    58   24   26 am
    59   26   55 1
@<TRIPOS>MOLECULE
CHEMBL193336__3
   56    59     0     0     0
SMALL
USER_CHARGES

@<TRIPOS>ATOM
      1 C1         -0.0167    1.3792    0.0096 C.ar      1 <0>        -0.1029
      2 C2          1.1683    2.0931    0.0021 C.ar      1 <0>        -0.1154
      3 C3          2.3774    1.4286   -0.0134 C.ar      1 <0>        -0.1018
      4 C4          2.4032    0.0335   -0.0212 C.ar      1 <0>        -0.0835
      5 C5          1.2045   -0.6806   -0.0131 C.ar      1 <0>        -0.1012
      6 C6          0.0021   -0.0041    0.0020 C.ar      1 <0>        -0.1151
      7 C7          3.6950   -0.6848   -0.0384 C.2       1 <0>        -0.0462
      8 C8          4.4943   -0.5772    1.0009 C.2       1 <0>        -0.1880
      9 C9          5.8233   -1.2710    1.0843 C.3       1 <0>         0.0340
     10 N1          6.2689   -1.6856   -0.2511 N.4       1 <0>        -0.3851
     11 C10         5.1971   -2.4623   -0.8938 C.3       1 <0>        -0.0033
     12 C11         4.0456   -1.5174   -1.2408 C.3       1 <0>        -0.1137
     13 C12         7.4741   -2.5169   -0.1311 C.3       1 <0>        -0.0126
     14 C13         8.6201   -1.6750    0.4337 C.3       1 <0>        -0.1319
     15 C14         9.8754   -2.5408    0.5587 C.3       1 <0>        -0.0659
     16 C15        11.0042   -1.7116    1.1150 C.2       1 <0>         0.3708
     17 N2         10.7978   -0.4711    1.4035 N.2       1 <0>        -0.5308
     18 C16        11.8730    0.3488    1.9567 C.3       1 <0>         0.0812
     19 C17        11.3165    1.5846    2.6505 C.3       1 <0>        -0.0980
     20 C18        10.4758    1.1758    3.8612 C.3       1 <0>        -0.1146
     21 C19        11.3552    0.3887    4.8364 C.3       1 <0>        -0.1207
     22 C20        11.8690   -0.8728    4.1427 C.3       1 <0>        -0.1053
     23 C21        12.7112   -0.4913    2.9222 C.3       1 <0>        -0.1263
     24 C22        13.1026   -1.7661    2.2021 C.2       1 <0>         0.5218
     25 O1         14.1669   -2.3027    2.4243 O.2       1 <0>        -0.4939
     26 N3         12.2364   -2.2915    1.3122 N.am      1 <0>        -0.6951
     27 H1         -0.9604    1.9041    0.0260 H         1 <0>         0.1296
     28 H2          1.1469    3.1729    0.0082 H         1 <0>         0.1299
     29 H3          3.3018    1.9870   -0.0200 H         1 <0>         0.1240
     30 H4          1.2178   -1.7605   -0.0194 H         1 <0>         0.1241
     31 H5         -0.9265   -0.5556    0.0079 H         1 <0>         0.1301
     32 H6          4.1807    0.0380    1.8312 H         1 <0>         0.1504
     33 H7          6.5585   -0.5912    1.5147 H         1 <0>         0.1429
     34 H8          5.7318   -2.1497    1.7228 H         1 <0>         0.1381
     35 H9          5.5771   -2.9272   -1.8035 H         1 <0>         0.1377
     36 H10         4.8408   -3.2312   -0.2083 H         1 <0>         0.1326
     37 H11         3.1757   -2.0990   -1.5459 H         1 <0>         0.1247
     38 H12         4.3502   -0.8642   -2.0585 H         1 <0>         0.1071
     39 H13         7.2735   -3.3533    0.5384 H         1 <0>         0.1316
     40 H14         7.7527   -2.8970   -1.1140 H         1 <0>         0.1337
     41 H15         8.8208   -0.8386   -0.2358 H         1 <0>         0.0993
     42 H16         8.3416   -1.2949    1.4166 H         1 <0>         0.0987
     43 H17         9.6748   -3.3772    1.2282 H         1 <0>         0.1036
     44 H18        10.1540   -2.9209   -0.4242 H         1 <0>         0.1026
     45 H19        12.5125    0.6829    1.1396 H         1 <0>         0.0816
     46 H20        12.1415    2.2161    2.9802 H         1 <0>         0.0749
     47 H21        10.6946    2.1426    1.9506 H         1 <0>         0.0747
     48 H22        10.0908    2.0676    4.3557 H         1 <0>         0.0673
     49 H23         9.6447    0.5511    3.5339 H         1 <0>         0.0649
     50 H24        12.2000    1.0050    5.1440 H         1 <0>         0.0702
     51 H25        10.7688    0.1097    5.7119 H         1 <0>         0.0710
     52 H26        12.4807   -1.4455    4.8398 H         1 <0>         0.0741
     53 H27        11.0224   -1.4803    3.8228 H         1 <0>         0.0622
     54 H28        13.5948    0.0653    3.2346 H         1 <0>         0.1225
     55 H29        12.4856   -3.0806    0.8063 H         1 <0>         0.4125
     56 H30         6.4742   -0.8691   -0.8071 H         1 <0>         0.4268
@<TRIPOS>BOND
     1    1    6 ar
     2    1    2 ar
     3    1   27 1
     4    2    3 ar
     5    2   28 1
     6    3    4 ar
     7    3   29 1
     8    4    5 ar
     9    4    7 1
    10    5    6 ar
    11    5   30 1
    12    6   31 1
    13    7   12 1
    14    7    8 2
    15    8    9 1
    16    8   32 1
    17    9   10 1
    18    9   33 1
    19    9   34 1
    20   10   11 1
    21   10   13 1
    22   10   56 1
    23   11   12 1
    24   11   35 1
    25   11   36 1
    26   12   37 1
    27   12   38 1
    28   13   14 1
    29   13   39 1
    30   13   40 1
    31   14   15 1
    32   14   41 1
    33   14   42 1
    34   15   16 1
    35   15   43 1
    36   15   44 1
    37   16   26 1
    38   16   17 2
    39   17   18 1
    40   18   23 1
    41   18   19 1
    42   18   45 1
    43   19   20 1
    44   19   46 1
    45   19   47 1
    46   20   21 1
    47   20   48 1
    48   20   49 1
    49   21   22 1
    50   21   50 1
    51   21   51 1
    52   22   23 1
    53   22   52 1
    54   22   53 1
    55   23   24 1
    56   23   54 1
    57   24   25 2
    58   24   26 am
    59   26   55 1
@<TRIPOS>MOLECULE
CHEMBL370207
   53    56     0     0     0
SMALL
USER_CHARGES

@<TRIPOS>ATOM
      1 C1         -0.0167    1.3792    0.0096 C.ar      1 <0>        -0.1029
      2 C2          1.1683    2.0931    0.0021 C.ar      1 <0>        -0.1154
      3 C3          2.3774    1.4286   -0.0134 C.ar      1 <0>        -0.1019
      4 C4          2.4032    0.0335   -0.0212 C.ar      1 <0>        -0.0835
      5 C5          1.2045   -0.6806   -0.0131 C.ar      1 <0>        -0.1012
      6 C6          0.0021   -0.0041    0.0020 C.ar      1 <0>        -0.1151
      7 C7          3.6950   -0.6848   -0.0384 C.2       1 <0>        -0.0464
      8 C8          4.4943   -0.5772    1.0009 C.2       1 <0>        -0.1879
      9 C9          5.8233   -1.2710    1.0843 C.3       1 <0>         0.0340
     10 N1          6.2689   -1.6856   -0.2511 N.4       1 <0>        -0.3850
     11 C10         5.1971   -2.4623   -0.8938 C.3       1 <0>        -0.0033
     12 C11         4.0456   -1.5174   -1.2408 C.3       1 <0>        -0.1136
     13 C12         7.4741   -2.5169   -0.1311 C.3       1 <0>        -0.0129
     14 C13         8.6201   -1.6750    0.4337 C.3       1 <0>        -0.1303
     15 C14         9.8754   -2.5408    0.5587 C.3       1 <0>        -0.0684
     16 C15        11.0042   -1.7116    1.1150 C.2       1 <0>         0.3822
     17 N2         10.7877   -0.4833    1.3970 N.2       1 <0>        -0.5509
     18 C16        11.7947    0.4195    1.9477 C.3       1 <0>         0.0845
     19 C17        11.6587    1.7746    1.1927 C.3       1 <0>        -0.1048
     20 C18        12.3404    1.4576   -0.1644 C.3       1 <0>        -0.1223
     21 C19        13.5602    0.5929    0.2279 C.3       1 <0>        -0.1086
     22 C20        13.2117   -0.0454    1.5791 C.3       1 <0>        -0.1432
     23 C21        13.3139   -1.5352    1.5301 C.2       1 <0>         0.5264
     24 O1         14.3918   -2.0643    1.6989 O.2       1 <0>        -0.5000
     25 N3         12.2286   -2.3018    1.3071 N.am      1 <0>        -0.6908
     26 H1         -0.9604    1.9041    0.0260 H         1 <0>         0.1296
     27 H2          1.1469    3.1729    0.0082 H         1 <0>         0.1299
     28 H3          3.3018    1.9870   -0.0200 H         1 <0>         0.1240
     29 H4          1.2178   -1.7605   -0.0194 H         1 <0>         0.1241
     30 H5         -0.9265   -0.5556    0.0079 H         1 <0>         0.1301
     31 H6          4.1807    0.0380    1.8312 H         1 <0>         0.1504
     32 H7          6.5585   -0.5912    1.5147 H         1 <0>         0.1432
     33 H8          5.7318   -2.1497    1.7228 H         1 <0>         0.1382
     34 H9          5.5771   -2.9272   -1.8035 H         1 <0>         0.1376
     35 H10         4.8408   -3.2312   -0.2083 H         1 <0>         0.1326
     36 H11         3.1757   -2.0990   -1.5459 H         1 <0>         0.1247
     37 H12         4.3502   -0.8642   -2.0585 H         1 <0>         0.1070
     38 H13         7.2735   -3.3533    0.5384 H         1 <0>         0.1316
     39 H14         7.7527   -2.8970   -1.1140 H         1 <0>         0.1332
     40 H15         8.8208   -0.8386   -0.2358 H         1 <0>         0.0986
     41 H16         8.3416   -1.2949    1.4166 H         1 <0>         0.0991
     42 H17         9.6748   -3.3772    1.2282 H         1 <0>         0.1025
     43 H18        10.1540   -2.9209   -0.4242 H         1 <0>         0.1028
     44 H19        11.6799    0.5326    3.0257 H         1 <0>         0.1062
     45 H20        10.6105    2.0372    1.0499 H         1 <0>         0.0821
     46 H21        12.1892    2.5682    1.7189 H         1 <0>         0.0814
     47 H22        11.6650    0.8962   -0.8101 H         1 <0>         0.0657
     48 H23        12.6640    2.3762   -0.6539 H         1 <0>         0.0766
     49 H24        13.7275   -0.1815   -0.5207 H         1 <0>         0.0665
     50 H25        14.4474    1.2184    0.3263 H         1 <0>         0.0853
     51 H26        13.9102    0.3186    2.3325 H         1 <0>         0.1173
     52 H27        12.3121   -3.2678    1.2786 H         1 <0>         0.4144
     53 H28         6.4742   -0.8691   -0.8071 H         1 <0>         0.4266
@<TRIPOS>BOND
     1    1    6 ar
     2    1    2 ar
     3    1   26 1
     4    2    3 ar
     5    2   27 1
     6    3    4 ar
     7    3   28 1
     8    4    5 ar
     9    4    7 1
    10    5    6 ar
    11    5   29 1
    12    6   30 1
    13    7   12 1
    14    7    8 2
    15    8    9 1
    16    8   31 1
    17    9   10 1
    18    9   32 1
    19    9   33 1
    20   10   11 1
    21   10   13 1
    22   10   53 1
    23   11   12 1
    24   11   34 1
    25   11   35 1
    26   12   36 1
    27   12   37 1
    28   13   14 1
    29   13   38 1
    30   13   39 1
    31   14   15 1
    32   14   40 1
    33   14   41 1
    34   15   16 1
    35   15   42 1
    36   15   43 1
    37   16   25 1
    38   16   17 2
    39   17   18 1
    40   18   22 1
    41   18   19 1
    42   18   44 1
    43   19   20 1
    44   19   45 1
    45   19   46 1
    46   20   21 1
    47   20   47 1
    48   20   48 1
    49   21   22 1
    50   21   49 1
    51   21   50 1
    52   22   23 1
    53   22   51 1
    54   23   24 2
    55   23   25 am
    56   25   52 1
@<TRIPOS>MOLECULE
CHEMBL370207__1
   53    56     0     0     0
SMALL
USER_CHARGES

@<TRIPOS>ATOM
      1 C1         -0.0167    1.3792    0.0096 C.ar      1 <0>        -0.1029
      2 C2          1.1683    2.0931    0.0021 C.ar      1 <0>        -0.1154
      3 C3          2.3774    1.4286   -0.0134 C.ar      1 <0>        -0.1019
      4 C4          2.4032    0.0335   -0.0212 C.ar      1 <0>        -0.0835
      5 C5          1.2045   -0.6806   -0.0131 C.ar      1 <0>        -0.1012
      6 C6          0.0021   -0.0041    0.0020 C.ar      1 <0>        -0.1151
      7 C7          3.6950   -0.6848   -0.0384 C.2       1 <0>        -0.0464
      8 C8          4.4943   -0.5772    1.0009 C.2       1 <0>        -0.1880
      9 C9          5.8233   -1.2710    1.0843 C.3       1 <0>         0.0337
     10 N1          6.2689   -1.6856   -0.2511 N.4       1 <0>        -0.3852
     11 C10         5.1971   -2.4623   -0.8938 C.3       1 <0>        -0.0033
     12 C11         4.0456   -1.5174   -1.2408 C.3       1 <0>        -0.1137
     13 C12         7.4741   -2.5169   -0.1311 C.3       1 <0>        -0.0122
     14 C13         8.6201   -1.6750    0.4337 C.3       1 <0>        -0.1333
     15 C14         9.8754   -2.5408    0.5587 C.3       1 <0>        -0.0666
     16 C15        11.0042   -1.7116    1.1150 C.2       1 <0>         0.3660
     17 N2         10.7913   -0.4550    1.4061 N.2       1 <0>        -0.5169
     18 C16        11.9301    0.2783    1.9170 C.3       1 <0>         0.0621
     19 C17        11.9225    1.8020    1.8193 C.3       1 <0>        -0.0973
     20 C18        13.4341    2.1569    1.9152 C.3       1 <0>        -0.1255
     21 C19        14.2076    0.8969    1.4455 C.3       1 <0>        -0.1041
     22 C20        13.1340   -0.0825    0.9964 C.3       1 <0>        -0.1496
     23 C21        13.3777   -1.5426    1.2085 C.2       1 <0>         0.5344
     24 O1         14.4901   -2.0187    1.2873 O.2       1 <0>        -0.4789
     25 N3         12.2389   -2.2970    1.3114 N.am      1 <0>        -0.7065
     26 H1         -0.9604    1.9041    0.0260 H         1 <0>         0.1296
     27 H2          1.1469    3.1729    0.0082 H         1 <0>         0.1300
     28 H3          3.3018    1.9870   -0.0200 H         1 <0>         0.1240
     29 H4          1.2178   -1.7605   -0.0194 H         1 <0>         0.1242
     30 H5         -0.9265   -0.5556    0.0079 H         1 <0>         0.1301
     31 H6          4.1807    0.0380    1.8312 H         1 <0>         0.1504
     32 H7          6.5585   -0.5912    1.5147 H         1 <0>         0.1431
     33 H8          5.7318   -2.1497    1.7228 H         1 <0>         0.1384
     34 H9          5.5771   -2.9272   -1.8035 H         1 <0>         0.1377
     35 H10         4.8408   -3.2312   -0.2083 H         1 <0>         0.1327
     36 H11         3.1757   -2.0990   -1.5459 H         1 <0>         0.1248
     37 H12         4.3502   -0.8642   -2.0585 H         1 <0>         0.1071
     38 H13         7.2735   -3.3533    0.5384 H         1 <0>         0.1321
     39 H14         7.7527   -2.8970   -1.1140 H         1 <0>         0.1337
     40 H15         8.8208   -0.8386   -0.2358 H         1 <0>         0.0987
     41 H16         8.3416   -1.2949    1.4166 H         1 <0>         0.0994
     42 H17         9.6748   -3.3772    1.2282 H         1 <0>         0.1033
     43 H18        10.1540   -2.9209   -0.4242 H         1 <0>         0.1052
     44 H19        12.1406   -0.0312    2.9407 H         1 <0>         0.0867
     45 H20        11.5091    2.1261    0.8643 H         1 <0>         0.0768
     46 H21        11.3691    2.2399    2.6500 H         1 <0>         0.0784
     47 H22        13.6626    3.0008    1.2643 H         1 <0>         0.0776
     48 H23        13.6980    2.3958    2.9455 H         1 <0>         0.0752
     49 H24        14.8656    1.1452    0.6128 H         1 <0>         0.0809
     50 H25        14.7824    0.4762    2.2706 H         1 <0>         0.0777
     51 H26        12.8733    0.1061   -0.0451 H         1 <0>         0.1136
     52 H27        12.2988   -3.2426    1.5191 H         1 <0>         0.4132
     53 H28         6.4742   -0.8691   -0.8071 H         1 <0>         0.4268
@<TRIPOS>BOND
     1    1    6 ar
     2    1    2 ar
     3    1   26 1
     4    2    3 ar
     5    2   27 1
     6    3    4 ar
     7    3   28 1
     8    4    5 ar
     9    4    7 1
    10    5    6 ar
    11    5   29 1
    12    6   30 1
    13    7   12 1
    14    7    8 2
    15    8    9 1
    16    8   31 1
    17    9   10 1
    18    9   32 1
    19    9   33 1
    20   10   11 1
    21   10   13 1
    22   10   53 1
    23   11   12 1
    24   11   34 1
    25   11   35 1
    26   12   36 1
    27   12   37 1
    28   13   14 1
    29   13   38 1
    30   13   39 1
    31   14   15 1
    32   14   40 1
    33   14   41 1
    34   15   16 1
    35   15   42 1
    36   15   43 1
    37   16   25 1
    38   16   17 2
    39   17   18 1
    40   18   22 1
    41   18   19 1
    42   18   44 1
    43   19   20 1
    44   19   45 1
    45   19   46 1
    46   20   21 1
    47   20   47 1
    48   20   48 1
    49   21   22 1
    50   21   49 1
    51   21   50 1
    52   22   23 1
    53   22   51 1
    54   23   24 2
    55   23   25 am
    56   25   52 1
@<TRIPOS>MOLECULE
CHEMBL370207__2
   53    56     0     0     0
SMALL
USER_CHARGES

@<TRIPOS>ATOM
      1 C1         -0.0167    1.3792    0.0096 C.ar      1 <0>        -0.1029
      2 C2          1.1683    2.0931    0.0021 C.ar      1 <0>        -0.1154
      3 C3          2.3774    1.4286   -0.0134 C.ar      1 <0>        -0.1019
      4 C4          2.4032    0.0335   -0.0212 C.ar      1 <0>        -0.0835
      5 C5          1.2045   -0.6806   -0.0131 C.ar      1 <0>        -0.1012
      6 C6          0.0021   -0.0041    0.0020 C.ar      1 <0>        -0.1151
      7 C7          3.6950   -0.6848   -0.0384 C.2       1 <0>        -0.0463
      8 C8          4.4943   -0.5772    1.0009 C.2       1 <0>        -0.1880
      9 C9          5.8233   -1.2710    1.0843 C.3       1 <0>         0.0337
     10 N1          6.2689   -1.6856   -0.2511 N.4       1 <0>        -0.3852
     11 C10         5.1971   -2.4623   -0.8938 C.3       1 <0>        -0.0033
     12 C11         4.0456   -1.5174   -1.2408 C.3       1 <0>        -0.1137
     13 C12         7.4741   -2.5169   -0.1311 C.3       1 <0>        -0.0122
     14 C13         8.6201   -1.6750    0.4337 C.3       1 <0>        -0.1335
     15 C14         9.8754   -2.5408    0.5587 C.3       1 <0>        -0.0658
     16 C15        11.0042   -1.7116    1.1150 C.2       1 <0>         0.3660
     17 N2         10.7931   -0.4542    1.4068 N.2       1 <0>        -0.5162
     18 C16        11.9210    0.2641    1.9548 C.3       1 <0>         0.0623
     19 C17        11.6926    1.5706    2.6941 C.3       1 <0>        -0.0992
     20 C18        12.8201    1.6333    3.7582 C.3       1 <0>        -0.1248
     21 C19        13.5954    0.2892    3.6517 C.3       1 <0>        -0.1028
     22 C20        12.5550   -0.6523    3.0431 C.3       1 <0>        -0.1496
     23 C21        13.0671   -1.8476    2.3000 C.2       1 <0>         0.5339
     24 O1         14.1273   -2.3762    2.5586 O.2       1 <0>        -0.4798
     25 N3         12.2395   -2.2952    1.3121 N.am      1 <0>        -0.7045
     26 H1         -0.9604    1.9041    0.0260 H         1 <0>         0.1296
     27 H2          1.1469    3.1729    0.0082 H         1 <0>         0.1300
     28 H3          3.3018    1.9870   -0.0200 H         1 <0>         0.1240
     29 H4          1.2178   -1.7605   -0.0194 H         1 <0>         0.1242
     30 H5         -0.9265   -0.5556    0.0079 H         1 <0>         0.1301
     31 H6          4.1807    0.0380    1.8312 H         1 <0>         0.1505
     32 H7          6.5585   -0.5912    1.5147 H         1 <0>         0.1430
     33 H8          5.7318   -2.1497    1.7228 H         1 <0>         0.1383
     34 H9          5.5771   -2.9272   -1.8035 H         1 <0>         0.1378
     35 H10         4.8408   -3.2312   -0.2083 H         1 <0>         0.1326
     36 H11         3.1757   -2.0990   -1.5459 H         1 <0>         0.1248
     37 H12         4.3502   -0.8642   -2.0585 H         1 <0>         0.1071
     38 H13         7.2735   -3.3533    0.5384 H         1 <0>         0.1319
     39 H14         7.7527   -2.8970   -1.1140 H         1 <0>         0.1340
     40 H15         8.8208   -0.8386   -0.2358 H         1 <0>         0.0993
     41 H16         8.3416   -1.2949    1.4166 H         1 <0>         0.0989
     42 H17         9.6748   -3.3772    1.2282 H         1 <0>         0.1054
     43 H18        10.1540   -2.9209   -0.4242 H         1 <0>         0.1036
     44 H19        12.6529    0.4363    1.1657 H         1 <0>         0.0804
     45 H20        11.7726    2.4132    2.0074 H         1 <0>         0.0766
     46 H21        10.7156    1.5664    3.1774 H         1 <0>         0.0760
     47 H22        13.4879    2.4686    3.5474 H         1 <0>         0.0772
     48 H23        12.3897    1.7394    4.7540 H         1 <0>         0.0753
     49 H24        14.4569    0.3913    2.9918 H         1 <0>         0.0779
     50 H25        13.9020   -0.0593    4.6379 H         1 <0>         0.0832
     51 H26        11.8138   -0.9416    3.7882 H         1 <0>         0.1180
     52 H27        12.5239   -3.0271    0.7427 H         1 <0>         0.4124
     53 H28         6.4742   -0.8691   -0.8071 H         1 <0>         0.4268
@<TRIPOS>BOND
     1    1    6 ar
     2    1    2 ar
     3    1   26 1
     4    2    3 ar
     5    2   27 1
     6    3    4 ar
     7    3   28 1
     8    4    5 ar
     9    4    7 1
    10    5    6 ar
    11    5   29 1
    12    6   30 1
    13    7   12 1
    14    7    8 2
    15    8    9 1
    16    8   31 1
    17    9   10 1
    18    9   32 1
    19    9   33 1
    20   10   11 1
    21   10   13 1
    22   10   53 1
    23   11   12 1
    24   11   34 1
    25   11   35 1
    26   12   36 1
    27   12   37 1
    28   13   14 1
    29   13   38 1
    30   13   39 1
    31   14   15 1
    32   14   40 1
    33   14   41 1
    34   15   16 1
    35   15   42 1
    36   15   43 1
    37   16   25 1
    38   16   17 2
    39   17   18 1
    40   18   22 1
    41   18   19 1
    42   18   44 1
    43   19   20 1
    44   19   45 1
    45   19   46 1
    46   20   21 1
    47   20   47 1
    48   20   48 1
    49   21   22 1
    50   21   49 1
    51   21   50 1
    52   22   23 1
    53   22   51 1
    54   23   24 2
    55   23   25 am
    56   25   52 1
@<TRIPOS>MOLECULE
CHEMBL370207__3
   53    56     0     0     0
SMALL
USER_CHARGES

@<TRIPOS>ATOM
      1 C1         -0.0167    1.3792    0.0096 C.ar      1 <0>        -0.1029
      2 C2          1.1683    2.0931    0.0021 C.ar      1 <0>        -0.1154
      3 C3          2.3774    1.4286   -0.0134 C.ar      1 <0>        -0.1019
      4 C4          2.4032    0.0335   -0.0212 C.ar      1 <0>        -0.0835
      5 C5          1.2045   -0.6806   -0.0131 C.ar      1 <0>        -0.1012
      6 C6          0.0021   -0.0041    0.0020 C.ar      1 <0>        -0.1151
      7 C7          3.6950   -0.6848   -0.0384 C.2       1 <0>        -0.0463
      8 C8          4.4943   -0.5772    1.0009 C.2       1 <0>        -0.1881
      9 C9          5.8233   -1.2710    1.0843 C.3       1 <0>         0.0340
     10 N1          6.2689   -1.6856   -0.2511 N.4       1 <0>        -0.3851
     11 C10         5.1971   -2.4623   -0.8938 C.3       1 <0>        -0.0033
     12 C11         4.0456   -1.5174   -1.2408 C.3       1 <0>        -0.1137
     13 C12         7.4741   -2.5169   -0.1311 C.3       1 <0>        -0.0128
     14 C13         8.6201   -1.6750    0.4337 C.3       1 <0>        -0.1304
     15 C14         9.8754   -2.5408    0.5587 C.3       1 <0>        -0.0685
     16 C15        11.0042   -1.7116    1.1150 C.2       1 <0>         0.3832
     17 N2         10.7872   -0.4847    1.3965 N.2       1 <0>        -0.5566
     18 C16        11.7894    0.4317    1.9322 C.3       1 <0>         0.0879
     19 C17        11.1042    1.2706    3.0382 C.3       1 <0>        -0.1064
     20 C18        11.8385    0.9410    4.3557 C.3       1 <0>        -0.1264
     21 C19        12.4590   -0.4589    4.0987 C.3       1 <0>        -0.1053
     22 C20        12.9234   -0.3304    2.6319 C.3       1 <0>        -0.1442
     23 C21        13.1753   -1.6664    2.0181 C.2       1 <0>         0.5264
     24 O1         14.2574   -2.1925    2.1681 O.2       1 <0>        -0.5005
     25 N3         12.2281   -2.3025    1.3067 N.am      1 <0>        -0.6898
     26 H1         -0.9604    1.9041    0.0260 H         1 <0>         0.1296
     27 H2          1.1469    3.1729    0.0082 H         1 <0>         0.1300
     28 H3          3.3018    1.9870   -0.0200 H         1 <0>         0.1240
     29 H4          1.2178   -1.7605   -0.0194 H         1 <0>         0.1242
     30 H5         -0.9265   -0.5556    0.0079 H         1 <0>         0.1301
     31 H6          4.1807    0.0380    1.8312 H         1 <0>         0.1504
     32 H7          6.5585   -0.5912    1.5147 H         1 <0>         0.1429
     33 H8          5.7318   -2.1497    1.7228 H         1 <0>         0.1381
     34 H9          5.5771   -2.9272   -1.8035 H         1 <0>         0.1377
     35 H10         4.8408   -3.2312   -0.2083 H         1 <0>         0.1326
     36 H11         3.1757   -2.0990   -1.5459 H         1 <0>         0.1247
     37 H12         4.3502   -0.8642   -2.0585 H         1 <0>         0.1071
     38 H13         7.2735   -3.3533    0.5384 H         1 <0>         0.1315
     39 H14         7.7527   -2.8970   -1.1140 H         1 <0>         0.1335
     40 H15         8.8208   -0.8386   -0.2358 H         1 <0>         0.0989
     41 H16         8.3416   -1.2949    1.4166 H         1 <0>         0.0986
     42 H17         9.6748   -3.3772    1.2282 H         1 <0>         0.1030
     43 H18        10.1540   -2.9209   -0.4242 H         1 <0>         0.1029
     44 H19        12.1874    1.0671    1.1409 H         1 <0>         0.1021
     45 H20        11.1978    2.3331    2.8137 H         1 <0>         0.0764
     46 H21        10.0523    0.9962    3.1179 H         1 <0>         0.0790
     47 H22        12.6199    1.6753    4.5518 H         1 <0>         0.0770
     48 H23        11.1338    0.9002    5.1862 H         1 <0>         0.0768
     49 H24        13.3053   -0.6385    4.7618 H         1 <0>         0.0841
     50 H25        11.7096   -1.2433    4.2037 H         1 <0>         0.0687
     51 H26        13.8395    0.2586    2.5894 H         1 <0>         0.1209
     52 H27        12.4111   -3.1761    0.9271 H         1 <0>         0.4146
     53 H28         6.4742   -0.8691   -0.8071 H         1 <0>         0.4268
@<TRIPOS>BOND
     1    1    6 ar
     2    1    2 ar
     3    1   26 1
     4    2    3 ar
     5    2   27 1
     6    3    4 ar
     7    3   28 1
     8    4    5 ar
     9    4    7 1
    10    5    6 ar
    11    5   29 1
    12    6   30 1
    13    7   12 1
    14    7    8 2
    15    8    9 1
    16    8   31 1
    17    9   10 1
    18    9   32 1
    19    9   33 1
    20   10   11 1
    21   10   13 1
    22   10   53 1
    23   11   12 1
    24   11   34 1
    25   11   35 1
    26   12   36 1
    27   12   37 1
    28   13   14 1
    29   13   38 1
    30   13   39 1
    31   14   15 1
    32   14   40 1
    33   14   41 1
    34   15   16 1
    35   15   42 1
    36   15   43 1
    37   16   25 1
    38   16   17 2
    39   17   18 1
    40   18   22 1
    41   18   19 1
    42   18   44 1
    43   19   20 1
    44   19   45 1
    45   19   46 1
    46   20   21 1
    47   20   47 1
    48   20   48 1
    49   21   22 1
    50   21   49 1
    51   21   50 1
    52   22   23 1
    53   22   51 1
    54   23   24 2
    55   23   25 am
    56   25   52 1
@<TRIPOS>MOLECULE
CHEMBL84192
   48    51     0     0     0
SMALL
USER_CHARGES

@<TRIPOS>ATOM
      1 C1         -0.0165    1.3630    0.0095 C.ar      1 <0>        -0.0749
      2 C2          1.1650    2.0935    0.0022 C.ar      1 <0>        -0.1279
      3 C3          2.3792    1.4638   -0.0116 C.ar      1 <0>        -0.0450
      4 C4          2.4270    0.0703   -0.0190 C.ar      1 <0>        -0.1483
      5 C5          1.2278   -0.6733   -0.0137 C.ar      1 <0>         0.0049
      6 C6          0.0021   -0.0041    0.0020 C.ar      1 <0>        -0.1297
      7 C7          1.3000   -2.1416   -0.0277 C.2       1 <0>        -0.1787
      8 C8          2.4951   -2.7439   -0.0514 C.2       1 <0>         0.1550
      9 N1          3.6618   -2.0119   -0.0445 N.am      1 <0>        -0.6366
     10 C9          3.6929   -0.6699   -0.0319 C.2       1 <0>         0.5510
     11 O1          4.7562   -0.0762   -0.0309 O.2       1 <0>        -0.5124
     12 C10         2.6503   -4.2445   -0.1067 C.3       1 <0>        -0.1085
     13 C11         1.3888   -4.9467    0.3894 C.3       1 <0>         0.1025
     14 N2          0.2365   -4.3195   -0.2805 N.am      1 <0>        -0.5912
     15 C12        -0.0029   -2.9005   -0.0010 C.3       1 <0>         0.1736
     16 C13        -0.5609   -5.0182   -1.1127 C.2       1 <0>         0.5079
     17 O2         -1.5023   -4.4739   -1.6497 O.2       1 <0>        -0.5215
     18 C14        -0.2827   -6.4757   -1.3760 C.3       1 <0>        -0.0325
     19 N3         -1.2860   -7.0049   -2.3093 N.4       1 <0>        -0.3698
     20 C15        -2.6104   -6.9616   -1.6779 C.3       1 <0>        -0.0190
     21 C16        -3.6705   -7.4359   -2.6743 C.3       1 <0>        -0.1421
     22 C17        -3.3542   -8.8717   -3.1028 C.3       1 <0>        -0.1401
     23 C18        -1.9416   -8.9187   -3.6922 C.3       1 <0>        -0.1455
     24 C19        -0.9455   -8.3895   -2.6581 C.3       1 <0>        -0.0069
     25 H1         -0.9632    1.8824    0.0259 H         1 <0>         0.1337
     26 H2          1.1243    3.1727    0.0070 H         1 <0>         0.1360
     27 H3          3.2923    2.0406   -0.0169 H         1 <0>         0.1418
     28 H4         -0.9229   -0.5615    0.0085 H         1 <0>         0.1326
     29 H5          2.8462   -4.5460   -1.1356 H         1 <0>         0.0976
     30 H6          3.4932   -4.5400    0.5181 H         1 <0>         0.1087
     31 H7          1.4317   -6.0061    0.1367 H         1 <0>         0.0994
     32 H8          1.2991   -4.8266    1.4690 H         1 <0>         0.1027
     33 H9         -0.4610   -2.7980    0.9827 H         1 <0>         0.0951
     34 H10        -0.6751   -2.4917   -0.7554 H         1 <0>         0.1107
     35 H11         0.7108   -6.5831   -1.8113 H         1 <0>         0.1599
     36 H12        -0.3304   -7.0298   -0.4386 H         1 <0>         0.1604
     37 H13        -2.6170   -7.6126   -0.8037 H         1 <0>         0.1247
     38 H14        -2.8326   -5.9397   -1.3706 H         1 <0>         0.1466
     39 H15        -4.6528   -7.4047   -2.2030 H         1 <0>         0.1121
     40 H16        -3.6649   -6.7854   -3.5489 H         1 <0>         0.0887
     41 H17        -3.4100   -9.5312   -2.2368 H         1 <0>         0.0817
     42 H18        -4.0739   -9.1944   -3.8552 H         1 <0>         0.0947
     43 H19        -1.6881   -9.9474   -3.9484 H         1 <0>         0.1143
     44 H20        -1.9001   -8.2990   -4.5879 H         1 <0>         0.0888
     45 H21         0.0613   -8.4217   -3.0744 H         1 <0>         0.1312
     46 H22        -0.9877   -9.0100   -1.7629 H         1 <0>         0.1309
     47 H23         4.5051   -2.4912   -0.0489 H         1 <0>         0.4142
     48 H24        -1.2960   -6.4411   -3.1461 H         1 <0>         0.4294
@<TRIPOS>BOND
     1    1    6 ar
     2    1    2 ar
     3    1   25 1
     4    2    3 ar
     5    2   26 1
     6    3    4 ar
     7    3   27 1
     8    4   10 1
     9    4    5 ar
    10    5    6 ar
    11    5    7 1
    12    6   28 1
    13    7   15 1
    14    7    8 2
    15    8    9 1
    16    8   12 1
    17    9   10 am
    18    9   47 1
    19   10   11 2
    20   12   13 1
    21   12   29 1
    22   12   30 1
    23   13   14 1
    24   13   31 1
    25   13   32 1
    26   14   15 1
    27   14   16 am
    28   15   33 1
    29   15   34 1
    30   16   17 2
    31   16   18 1
    32   18   19 1
    33   18   35 1
    34   18   36 1
    35   19   24 1
    36   19   20 1
    37   19   48 1
    38   20   21 1
    39   20   37 1
    40   20   38 1
    41   21   22 1
    42   21   39 1
    43   21   40 1
    44   22   23 1
    45   22   41 1
    46   22   42 1
    47   23   24 1
    48   23   43 1
    49   23   44 1
    50   24   45 1
    51   24   46 1
@<TRIPOS>MOLECULE
CHEMBL444135
   39    41     0     0     0
SMALL
USER_CHARGES

@<TRIPOS>ATOM
      1 C1         -0.0173    1.4248    0.0099 C.3       1 <0>         0.0299
      2 O1          0.0021   -0.0041    0.0020 O.3       1 <0>        -0.3840
      3 C2         -1.2953   -0.6030    0.0112 C.3       1 <0>         0.0869
      4 C3         -1.7446   -0.8245    1.4569 C.3       1 <0>        -0.1403
      5 C4         -3.1337   -1.4658    1.4667 C.3       1 <0>        -0.1072
      6 C5         -3.0801   -2.8099    0.7377 C.3       1 <0>        -0.0139
      7 C6         -2.6308   -2.5884   -0.7080 C.3       1 <0>        -0.1146
      8 C7         -1.2417   -1.9471   -0.7178 C.3       1 <0>        -0.1145
      9 C8         -4.4483   -3.4415    0.7473 C.2       1 <0>         0.2988
     10 N1         -5.4300   -3.1875   -0.1568 N.pl3     1 <0>        -0.5945
     11 H1         -5.3759   -2.5786   -0.9100 H         1 <0>         0.4232
     12 C9         -6.5197   -3.9595    0.1974 C.ar      1 <0>         0.0337
     13 C10        -7.7916   -4.1312   -0.3295 C.ar      1 <0>        -0.0787
     14 C11        -8.6798   -5.0020    0.2705 C.ar      1 <0>        -0.1153
     15 C12        -8.3164   -5.7127    1.3997 C.ar      1 <0>        -0.0866
     16 C13        -7.0461   -5.5596    1.9489 C.ar      1 <0>        -0.0913
     17 C14        -6.1313   -4.6721    1.3437 C.ar      1 <0>         0.1041
     18 N2         -4.8615   -4.3155    1.6208 N.2       1 <0>        -0.4650
     19 C15        -6.6602   -6.3183    3.1523 C.2       1 <0>         0.5572
     20 O2         -5.5494   -6.1807    3.6277 O.2       1 <0>        -0.5107
     21 N3         -7.5385   -7.1646    3.7258 N.am      1 <0>        -0.8557
     22 H2          1.0053    1.8021    0.0021 H         1 <0>         0.0869
     23 H3         -0.5445    1.7859   -0.8732 H         1 <0>         0.0410
     24 H4         -0.5275    1.7763    0.9067 H         1 <0>         0.0416
     25 H5         -2.0031    0.0555   -0.4924 H         1 <0>         0.0604
     26 H6         -1.0368   -1.4830    1.9604 H         1 <0>         0.0787
     27 H7         -1.7828    0.1330    1.9762 H         1 <0>         0.0699
     28 H8         -3.4537   -1.6236    2.4966 H         1 <0>         0.0791
     29 H9         -3.8414   -0.8073    0.9631 H         1 <0>         0.0637
     30 H10        -2.3723   -3.4684    1.2412 H         1 <0>         0.1147
     31 H11        -2.5926   -3.5459   -1.2274 H         1 <0>         0.0784
     32 H12        -3.3386   -1.9299   -1.2116 H         1 <0>         0.0634
     33 H13        -0.9217   -1.7893   -1.7478 H         1 <0>         0.0759
     34 H14        -0.5340   -2.6056   -0.2143 H         1 <0>         0.0791
     35 H15        -8.0880   -3.5821   -1.2111 H         1 <0>         0.1288
     36 H16        -9.6681   -5.1289   -0.1460 H         1 <0>         0.1390
     37 H17        -9.0218   -6.3899    1.8583 H         1 <0>         0.1346
     38 H18        -8.4245   -7.2744    3.3466 H         1 <0>         0.3983
     39 H19        -7.2846   -7.6639    4.5177 H         1 <0>         0.4052
@<TRIPOS>BOND
     1    1    2 1
     2    1   22 1
     3    1   23 1
     4    1   24 1
     5    2    3 1
     6    3    8 1
     7    3    4 1
     8    3   25 1
     9    4    5 1
    10    4   26 1
    11    4   27 1
    12    5    6 1
    13    5   28 1
    14    5   29 1
    15    6    7 1
    16    6    9 1
    17    6   30 1
    18    7    8 1
    19    7   31 1
    20    7   32 1
    21    8   33 1
    22    8   34 1
    23    9   18 2
    24    9   10 1
    25   10   11 1
    26   10   12 1
    27   12   17 ar
    28   12   13 ar
    29   13   14 ar
    30   13   35 1
    31   14   15 ar
    32   14   36 1
    33   15   16 ar
    34   15   37 1
    35   16   17 ar
    36   16   19 1
    37   17   18 1
    38   19   20 2
    39   19   21 am
    40   21   38 1
    41   21   39 1
@<TRIPOS>MOLECULE
CHEMBL1089713
   46    49     0     0     0
SMALL
USER_CHARGES

@<TRIPOS>ATOM
      1 C1         -0.3644    1.7248    0.1918 C.3       1 <0>        -0.1890
      2 C2         -0.2913    0.2085    0.0008 C.3       1 <0>        -0.0100
      3 N1         -1.6313   -0.3708    0.1648 N.4       1 <0>        -0.3882
      4 C3         -2.0821   -0.1944    1.5617 C.3       1 <0>        -0.0086
      5 C4         -2.8814   -1.4813    1.8849 C.3       1 <0>        -0.1742
      6 C5         -2.0587   -2.5589    1.1307 C.3       1 <0>         0.0703
      7 C6         -1.5883   -1.8136   -0.1360 C.3       1 <0>        -0.0074
      8 O1         -2.8834   -3.6734    0.7842 O.3       1 <0>        -0.2935
      9 C7         -3.0488   -4.6363    1.7296 C.ar      1 <0>         0.0860
     10 C8         -2.5225   -4.4511    3.0061 C.ar      1 <0>        -0.1529
     11 C9         -2.6812   -5.4152    3.9774 C.ar      1 <0>        -0.1148
     12 C10        -3.3733   -6.5856    3.6821 C.ar      1 <0>         0.1621
     13 C11        -3.9027   -6.7780    2.3992 C.ar      1 <0>        -0.0804
     14 C12        -3.7422   -5.7893    1.4207 C.ar      1 <0>        -0.0866
     15 C13        -4.6356   -8.0221    2.0743 C.2       1 <0>         0.0063
     16 C14        -4.7515   -8.9479    3.0383 C.2       1 <0>        -0.1518
     17 C15        -4.2115   -8.6888    4.3324 C.2       1 <0>         0.5386
     18 O2         -4.3583   -9.5300    5.2023 O.2       1 <0>        -0.5197
     19 N2         -3.5513   -7.5661    4.6362 N.am      1 <0>        -0.6274
     20 H1         -3.1962   -7.4410    5.5301 H         1 <0>         0.4217
     21 C16        -5.3977  -10.3040    2.8864 C.3       1 <0>        -0.0338
     22 S1         -6.4918  -10.3231    1.4399 S.3       1 <0>        -0.2325
     23 C17        -5.4576   -9.4978    0.1877 C.3       1 <0>        -0.0892
     24 C18        -5.1865   -8.0833    0.6795 C.3       1 <0>        -0.0918
     25 H2          0.6299    2.1546    0.0702 H         1 <0>         0.1073
     26 H3         -1.0384    2.1524   -0.5504 H         1 <0>         0.0815
     27 H4         -0.7367    1.9475    1.1918 H         1 <0>         0.0802
     28 H5          0.0810   -0.0142   -0.9991 H         1 <0>         0.1325
     29 H6          0.3827   -0.2191    0.7431 H         1 <0>         0.1299
     30 H7         -1.2247   -0.1027    2.2284 H         1 <0>         0.1368
     31 H8         -2.7244    0.6823    1.6453 H         1 <0>         0.1415
     32 H9         -2.8902   -1.6765    2.9573 H         1 <0>         0.1228
     33 H10        -3.8964   -1.4195    1.4926 H         1 <0>         0.1136
     34 H11        -1.2055   -2.8804    1.7279 H         1 <0>         0.1114
     35 H12        -2.2553   -2.0389   -0.9681 H         1 <0>         0.1473
     36 H13        -0.5692   -2.1105   -0.3840 H         1 <0>         0.1453
     37 H14        -1.9847   -3.5433    3.2364 H         1 <0>         0.1354
     38 H15        -2.2696   -5.2633    4.9643 H         1 <0>         0.1445
     39 H16        -4.1534   -5.9294    0.4319 H         1 <0>         0.1513
     40 H17        -4.6231  -11.0608    2.7628 H         1 <0>         0.1073
     41 H18        -5.9785  -10.5290    3.7809 H         1 <0>         0.1310
     42 H19        -4.5170  -10.0360    0.0712 H         1 <0>         0.0925
     43 H20        -5.9861   -9.4636   -0.7650 H         1 <0>         0.1213
     44 H21        -6.1188   -7.5195    0.6485 H         1 <0>         0.1054
     45 H22        -4.4746   -7.6103    0.0031 H         1 <0>         0.0969
     46 H23        -2.2786    0.0870   -0.4593 H         1 <0>         0.4310
@<TRIPOS>BOND
     1    1    2 1
     2    1   25 1
     3    1   26 1
     4    1   27 1
     5    2    3 1
     6    2   28 1
     7    2   29 1
     8    3    7 1
     9    3    4 1
    10    3   46 1
    11    4    5 1
    12    4   30 1
    13    4   31 1
    14    5    6 1
    15    5   32 1
    16    5   33 1
    17    6    7 1
    18    6    8 1
    19    6   34 1
    20    7   35 1
    21    7   36 1
    22    8    9 1
    23    9   14 ar
    24    9   10 ar
    25   10   11 ar
    26   10   37 1
    27   11   12 ar
    28   11   38 1
    29   12   19 1
    30   12   13 ar
    31   13   14 ar
    32   13   15 1
    33   14   39 1
    34   15   24 1
    35   15   16 2
    36   16   17 1
    37   16   21 1
    38   17   18 2
    39   17   19 am
    40   19   20 1
    41   21   22 1
    42   21   40 1
    43   21   41 1
    44   22   23 1
    45   23   24 1
    46   23   42 1
    47   23   43 1
    48   24   44 1
    49   24   45 1
@<TRIPOS>MOLECULE
CHEMBL1089713__1
   46    49     0     0     0
SMALL
USER_CHARGES

@<TRIPOS>ATOM
      1 C1         -0.0556    1.4267   -0.4242 C.3       1 <0>        -0.1878
      2 C2          0.0148   -0.0853   -0.2007 C.3       1 <0>        -0.0047
      3 N1         -1.3364   -0.6559   -0.2833 N.4       1 <0>        -0.3950
      4 C3         -2.1465   -0.2454    0.8924 C.3       1 <0>        -0.0017
      5 C4         -3.2645   -1.3060    0.9839 C.3       1 <0>        -0.1782
      6 C5         -2.6954   -2.5507    0.2723 C.3       1 <0>         0.0662
      7 C6         -1.2814   -2.1375   -0.1893 C.3       1 <0>         0.0009
      8 O1         -2.6191   -3.6507    1.1813 O.3       1 <0>        -0.2950
      9 C7         -3.7459   -4.3930    1.3480 C.ar      1 <0>         0.0846
     10 C8         -4.9311   -4.0009    0.7298 C.ar      1 <0>        -0.1517
     11 C9         -6.0825   -4.7411    0.8862 C.ar      1 <0>        -0.1147
     12 C10        -6.0630   -5.8913    1.6688 C.ar      1 <0>         0.1622
     13 C11        -4.8743   -6.2889    2.2948 C.ar      1 <0>        -0.0808
     14 C12        -3.7074   -5.5338    2.1243 C.ar      1 <0>        -0.0865
     15 C13        -4.8453   -7.5079    3.1337 C.2       1 <0>         0.0062
     16 C14        -5.9904   -8.1913    3.2811 C.2       1 <0>        -0.1519
     17 C15        -7.1652   -7.7520    2.6026 C.2       1 <0>         0.5386
     18 O2         -8.1856   -8.4076    2.7240 O.2       1 <0>        -0.5197
     19 N2         -7.1997   -6.6543    1.8395 N.am      1 <0>        -0.6274
     20 H1         -8.0268   -6.3936    1.4049 H         1 <0>         0.4217
     21 C16        -6.1835   -9.4137    4.1460 C.3       1 <0>        -0.0338
     22 S1         -4.5838  -10.1856    4.5136 S.3       1 <0>        -0.2324
     23 C17        -3.5677   -8.7358    4.9427 C.3       1 <0>        -0.0892
     24 C18        -3.5014   -7.8440    3.7113 C.3       1 <0>        -0.0916
     25 H2          0.9470    1.8500   -0.3629 H         1 <0>         0.1076
     26 H3         -0.4759    1.6291   -1.4093 H         1 <0>         0.0806
     27 H4         -0.6879    1.8780    0.3403 H         1 <0>         0.0796
     28 H5          0.6471   -0.5366   -0.9652 H         1 <0>         0.1320
     29 H6          0.4351   -0.2878    0.7844 H         1 <0>         0.1307
     30 H7         -1.5374   -0.2562    1.7963 H         1 <0>         0.1372
     31 H8         -2.5738    0.7446    0.7327 H         1 <0>         0.1385
     32 H9         -3.4857   -1.5340    2.0266 H         1 <0>         0.1247
     33 H10        -4.1617   -0.9554    0.4737 H         1 <0>         0.1099
     34 H11        -3.3132   -2.8110   -0.5872 H         1 <0>         0.1112
     35 H12        -1.0573   -2.5721   -1.1634 H         1 <0>         0.1474
     36 H13        -0.5369   -2.4444    0.5453 H         1 <0>         0.1479
     37 H14        -4.9476   -3.1080    0.1224 H         1 <0>         0.1354
     38 H15        -6.9969   -4.4295    0.4033 H         1 <0>         0.1445
     39 H16        -2.7867   -5.8388    2.5993 H         1 <0>         0.1511
     40 H17        -6.6664   -9.1228    5.0789 H         1 <0>         0.1073
     41 H18        -6.8175  -10.1293    3.6226 H         1 <0>         0.1311
     42 H19        -4.0271   -8.1930    5.7688 H         1 <0>         0.0924
     43 H20        -2.5641   -9.0566    5.2220 H         1 <0>         0.1212
     44 H21        -2.9107   -8.3491    2.9472 H         1 <0>         0.1054
     45 H22        -2.9965   -6.9162    3.9804 H         1 <0>         0.0967
     46 H23        -1.7870   -0.3731   -1.1406 H         1 <0>         0.4295
@<TRIPOS>BOND
     1    1    2 1
     2    1   25 1
     3    1   26 1
     4    1   27 1
     5    2    3 1
     6    2   28 1
     7    2   29 1
     8    3    7 1
     9    3    4 1
    10    3   46 1
    11    4    5 1
    12    4   30 1
    13    4   31 1
    14    5    6 1
    15    5   32 1
    16    5   33 1
    17    6    7 1
    18    6    8 1
    19    6   34 1
    20    7   35 1
    21    7   36 1
    22    8    9 1
    23    9   14 ar
    24    9   10 ar
    25   10   11 ar
    26   10   37 1
    27   11   12 ar
    28   11   38 1
    29   12   19 1
    30   12   13 ar
    31   13   14 ar
    32   13   15 1
    33   14   39 1
    34   15   24 1
    35   15   16 2
    36   16   17 1
    37   16   21 1
    38   17   18 2
    39   17   19 am
    40   19   20 1
    41   21   22 1
    42   21   40 1
    43   21   41 1
    44   22   23 1
    45   23   24 1
    46   23   42 1
    47   23   43 1
    48   24   44 1
    49   24   45 1
@<TRIPOS>MOLECULE
CHEMBL452158
   37    38     0     0     0
SMALL
USER_CHARGES

@<TRIPOS>ATOM
      1 C1         -0.0187    1.5258    0.0104 C.3       1 <0>        -0.1539
      2 C2          0.0021   -0.0041    0.0020 C.3       1 <0>         0.0597
      3 O1          0.6932   -0.4774    1.1597 O.3       1 <0>        -0.3502
      4 C3          0.8006   -1.8076    1.3039 C.2       1 <0>         0.4644
      5 O2          0.3237   -2.5457    0.4746 O.2       1 <0>        -0.5081
      6 C4          1.5162   -2.3806    2.5000 C.3       1 <0>        -0.1016
      7 C5          1.4962   -3.9085    2.4227 C.3       1 <0>        -0.1224
      8 C6          2.2117   -4.4814    3.6188 C.2       1 <0>         0.5191
      9 O3          2.6905   -3.7406    4.4513 O.2       1 <0>        -0.4952
     10 N1          2.3196   -5.8171    3.7636 N.am      1 <0>        -0.6085
     11 C7          2.9793   -6.3453    4.8665 C.2       1 <0>         0.3135
     12 N2          3.1948   -7.6080    5.1850 N.2       1 <0>        -0.5300
     13 C8          3.8508   -7.9369    6.2878 C.2       1 <0>         0.1179
     14 C9          4.3138   -6.9496    7.1123 C.2       1 <0>        -0.2384
     15 S1          3.7683   -5.4953    6.2266 S.3       1 <0>         0.1211
     16 C10         4.0803   -9.3628    6.6250 C.ar      1 <0>        -0.0266
     17 C11         4.7657   -9.7046    7.7896 C.ar      1 <0>        -0.1039
     18 C12         4.9765  -11.0331    8.0983 C.ar      1 <0>        -0.1205
     19 C13         4.5094  -12.0246    7.2543 C.ar      1 <0>        -0.1138
     20 C14         3.8290  -11.6912    6.0969 C.ar      1 <0>        -0.1235
     21 C15         3.6066  -10.3662    5.7815 C.ar      1 <0>        -0.0868
     22 H1          1.0039    1.9031    0.0027 H         1 <0>         0.0677
     23 H2         -0.5459    1.8868   -0.8726 H         1 <0>         0.0811
     24 H3         -0.5289    1.8773    0.9072 H         1 <0>         0.0677
     25 H4         -1.0205   -0.3814    0.0098 H         1 <0>         0.0692
     26 H5          0.5123   -0.3556   -0.8948 H         1 <0>         0.0692
     27 H6          2.5484   -2.0306    2.5079 H         1 <0>         0.1194
     28 H7          1.0156   -2.0564    3.4125 H         1 <0>         0.1194
     29 H8          0.4639   -4.2584    2.4148 H         1 <0>         0.1169
     30 H9          1.9967   -4.2327    1.5103 H         1 <0>         0.1169
     31 H10         1.9366   -6.4095    3.0978 H         1 <0>         0.4298
     32 H11         4.8610   -7.0267    8.0403 H         1 <0>         0.1997
     33 H12         5.1314   -8.9313    8.4489 H         1 <0>         0.1250
     34 H13         5.5074  -11.2991    9.0004 H         1 <0>         0.1262
     35 H14         4.6769  -13.0629    7.4997 H         1 <0>         0.1235
     36 H15         3.4672  -12.4694    5.4413 H         1 <0>         0.1246
     37 H16         3.0711  -10.1072    4.8801 H         1 <0>         0.1311
@<TRIPOS>BOND
     1    1    2 1
     2    1   22 1
     3    1   23 1
     4    1   24 1
     5    2    3 1
     6    2   25 1
     7    2   26 1
     8    3    4 1
     9    4    5 2
    10    4    6 1
    11    6    7 1
    12    6   27 1
    13    6   28 1
    14    7    8 1
    15    7   29 1
    16    7   30 1
    17    8    9 2
    18    8   10 am
    19   10   11 1
    20   10   31 1
    21   11   15 1
    22   11   12 2
    23   12   13 1
    24   13   14 2
    25   13   16 1
    26   14   15 1
    27   14   32 1
    28   16   21 ar
    29   16   17 ar
    30   17   18 ar
    31   17   33 1
    32   18   19 ar
    33   18   34 1
    34   19   20 ar
    35   19   35 1
    36   20   21 ar
    37   20   36 1
    38   21   37 1
@<TRIPOS>MOLECULE
CHEMBL452100
   36    38     0     0     0
SMALL
USER_CHARGES

@<TRIPOS>ATOM
      1 C1         -0.0167    1.3798    0.0096 C.ar      1 <0>        -0.1011
      2 C2          1.1681    2.0953    0.0022 C.ar      1 <0>        -0.1234
      3 C3          2.3774    1.4331   -0.0130 C.ar      1 <0>        -0.0880
      4 C4          2.4048    0.0349   -0.0208 C.ar      1 <0>        -0.0889
      5 C5          1.2034   -0.6808   -0.0131 C.ar      1 <0>        -0.0960
      6 C6          0.0021   -0.0041    0.0020 C.ar      1 <0>        -0.1235
      7 C7          3.6915   -0.6797   -0.0374 C.2       1 <0>         0.0119
      8 C8          3.7138   -2.0280   -0.0449 C.2       1 <0>        -0.2244
      9 C9          4.9932   -2.7386   -0.0614 C.2       1 <0>         0.5537
     10 O1          6.0370   -2.1126   -0.0684 O.2       1 <0>        -0.5034
     11 N1          5.0156   -4.0862   -0.0689 N.am      1 <0>        -0.6050
     12 C10         6.2288   -4.7600   -0.0846 C.2       1 <0>         0.3173
     13 N2          6.4626   -6.0593   -0.0993 N.2       1 <0>        -0.5324
     14 C11         7.6987   -6.5355   -0.1131 C.2       1 <0>         0.1180
     15 C12         8.7529   -5.6650   -0.1122 C.2       1 <0>        -0.2409
     16 S1          7.8896   -4.0991   -0.0981 S.3       1 <0>         0.1206
     17 C13         7.9367   -7.9993   -0.1290 C.ar      1 <0>        -0.0256
     18 C14         9.2390   -8.4962   -0.1372 C.ar      1 <0>        -0.1041
     19 C15         9.4545   -9.8592   -0.1515 C.ar      1 <0>        -0.1205
     20 C16         8.3811  -10.7318   -0.1582 C.ar      1 <0>        -0.1144
     21 C17         7.0866  -10.2444   -0.1501 C.ar      1 <0>        -0.1236
     22 C18         6.8591   -8.8833   -0.1300 C.ar      1 <0>        -0.0871
     23 H1         -0.9607    1.9041    0.0260 H         1 <0>         0.1267
     24 H2          1.1453    3.1750    0.0078 H         1 <0>         0.1288
     25 H3          3.3011    1.9927   -0.0191 H         1 <0>         0.1304
     26 H4          1.2164   -1.7607   -0.0194 H         1 <0>         0.1288
     27 H5         -0.9266   -0.5554    0.0083 H         1 <0>         0.1281
     28 H6          4.6177   -0.1243   -0.0436 H         1 <0>         0.1410
     29 H7          2.7877   -2.5835   -0.0386 H         1 <0>         0.1394
     30 H8          4.1837   -4.5851   -0.0633 H         1 <0>         0.4284
     31 H9          9.8137   -5.8671   -0.1217 H         1 <0>         0.1991
     32 H10        10.0777   -7.8158   -0.1328 H         1 <0>         0.1250
     33 H11        10.4631  -10.2454   -0.1579 H         1 <0>         0.1261
     34 H12         8.5545  -11.7978   -0.1701 H         1 <0>         0.1233
     35 H13         6.2523  -10.9302   -0.1557 H         1 <0>         0.1244
     36 H14         5.8480   -8.5039   -0.1191 H         1 <0>         0.1311
@<TRIPOS>BOND
     1    1    6 ar
     2    1    2 ar
     3    1   23 1
     4    2    3 ar
     5    2   24 1
     6    3    4 ar
     7    3   25 1
     8    4    5 ar
     9    4    7 1
    10    5    6 ar
    11    5   26 1
    12    6   27 1
    13    7    8 2
    14    7   28 1
    15    8    9 1
    16    8   29 1
    17    9   10 2
    18    9   11 am
    19   11   12 1
    20   11   30 1
    21   12   16 1
    22   12   13 2
    23   13   14 1
    24   14   15 2
    25   14   17 1
    26   15   16 1
    27   15   31 1
    28   17   22 ar
    29   17   18 ar
    30   18   19 ar
    31   18   32 1
    32   19   20 ar
    33   19   33 1
    34   20   21 ar
    35   20   34 1
    36   21   22 ar
    37   21   35 1
    38   22   36 1
@<TRIPOS>MOLECULE
CHEMBL482012
   31    33     0     0     0
SMALL
USER_CHARGES

@<TRIPOS>ATOM
      1 C1         -0.0167    1.3791    0.0096 C.ar      1 <0>        -0.1133
      2 C2          1.1686    2.0922    0.0021 C.ar      1 <0>        -0.1233
      3 C3          2.3774    1.4266   -0.0134 C.ar      1 <0>        -0.0868
      4 C4          2.4024    0.0329   -0.0211 C.ar      1 <0>        -0.0270
      5 C5          1.2049   -0.6804   -0.0130 C.ar      1 <0>        -0.1035
      6 C6          0.0021   -0.0041    0.0020 C.ar      1 <0>        -0.1202
      7 C7          3.6983   -0.6882   -0.0382 C.2       1 <0>         0.1179
      8 C8          3.7272   -2.0551   -0.0510 C.2       1 <0>        -0.2353
      9 S1          5.4909   -2.3490   -0.0680 S.3       1 <0>         0.1253
     10 C9          6.0026   -0.6364   -0.0565 C.2       1 <0>         0.3113
     11 N1          4.8384   -0.0141   -0.0469 N.2       1 <0>        -0.5270
     12 N2          7.2841   -0.1024   -0.0614 N.am      1 <0>        -0.6028
     13 C10         8.3550   -0.9206   -0.0773 C.2       1 <0>         0.5648
     14 O1          8.1989   -2.1257   -0.0874 O.2       1 <0>        -0.4835
     15 C11         9.7220   -0.3510   -0.0826 C.ar      1 <0>        -0.0885
     16 C12         9.9241    1.0327   -0.0653 C.ar      1 <0>        -0.1399
     17 C13        11.2163    1.5208   -0.0710 C.ar      1 <0>         0.1031
     18 N3         12.2491    0.7021   -0.0927 N.ar      1 <0>        -0.4613
     19 C14        12.1032   -0.6079   -0.1095 C.ar      1 <0>         0.1033
     20 C15        10.8467   -1.1819   -0.0990 C.ar      1 <0>        -0.1068
     21 H1         -0.9603    1.9042    0.0260 H         1 <0>         0.1238
     22 H2          1.1480    3.1720    0.0081 H         1 <0>         0.1248
     23 H3          3.3022    1.9843   -0.0199 H         1 <0>         0.1310
     24 H4          1.2184   -1.7603   -0.0189 H         1 <0>         0.1252
     25 H5         -0.9264   -0.5557    0.0079 H         1 <0>         0.1265
     26 H6          2.9106   -2.7619   -0.0503 H         1 <0>         0.2010
     27 H7          7.4088    0.8595   -0.0534 H         1 <0>         0.4272
     28 H8          9.0826    1.7094   -0.0482 H         1 <0>         0.1418
     29 H9         11.3827    2.5879   -0.0578 H         1 <0>         0.1681
     30 H10        12.9779   -1.2411   -0.1271 H         1 <0>         0.1699
     31 H11        10.7347   -2.2560   -0.1082 H         1 <0>         0.1540
@<TRIPOS>BOND
     1    1    6 ar
     2    1    2 ar
     3    1   21 1
     4    2    3 ar
     5    2   22 1
     6    3    4 ar
     7    3   23 1
     8    4    5 ar
     9    4    7 1
    10    5    6 ar
    11    5   24 1
    12    6   25 1
    13    7   11 1
    14    7    8 2
    15    8    9 1
    16    8   26 1
    17    9   10 1
    18   10   11 2
    19   10   12 1
    20   12   13 am
    21   12   27 1
    22   13   14 2
    23   13   15 1
    24   15   20 ar
    25   15   16 ar
    26   16   17 ar
    27   16   28 1
    28   17   18 ar
    29   17   29 1
    30   18   19 ar
    31   19   20 ar
    32   19   30 1
    33   20   31 1
@<TRIPOS>MOLECULE
CHEMBL383578
   53    57     0     0     0
SMALL
USER_CHARGES

@<TRIPOS>ATOM
      1 C1          1.8952   -4.9447   -2.2025 C.3       1 <0>        -0.0916
      2 C2          1.1627   -3.9415   -1.3492 C.2       1 <0>         0.1715
      3 C3          0.6091   -2.7866   -1.8886 C.2       1 <0>        -0.3019
      4 S1         -0.0926   -2.0438   -0.4240 S.3       1 <0>         0.1707
      5 C4          0.3689   -3.2263    0.6811 C.2       1 <0>         0.1181
      6 N1          1.0089   -4.1130   -0.0629 N.2       1 <0>        -0.5199
      7 C5          0.1144   -3.2670    2.1364 C.ar      1 <0>        -0.0334
      8 C6          0.5842   -4.3366    2.9005 C.ar      1 <0>        -0.0630
      9 C7          0.3436   -4.3681    4.2585 C.ar      1 <0>        -0.1213
     10 C8         -0.3615   -3.3427    4.8634 C.ar      1 <0>        -0.0934
     11 C9         -0.8298   -2.2797    4.1118 C.ar      1 <0>        -0.1180
     12 C10        -0.5916   -2.2331    2.7538 C.ar      1 <0>        -0.0907
     13 C11         0.6028   -2.3105   -3.2746 C.2       1 <0>         0.6155
     14 O1          1.1422   -2.9670   -4.1461 O.2       1 <0>        -0.4965
     15 N2         -0.0004   -1.1456   -3.5843 N.am      1 <0>        -0.6685
     16 C12         0.0763   -0.6433   -4.8870 C.ar      1 <0>         0.1434
     17 C13         0.1576    0.7268   -5.1011 C.ar      1 <0>        -0.1398
     18 C14         0.2336    1.2196   -6.3888 C.ar      1 <0>        -0.0982
     19 C15         0.2283    0.3507   -7.4648 C.ar      1 <0>        -0.1145
     20 C16         0.1475   -1.0136   -7.2552 C.ar      1 <0>        -0.0590
     21 C17         0.0770   -1.5134   -5.9694 C.ar      1 <0>        -0.1014
     22 C18         0.1416   -1.9566   -8.4307 C.3       1 <0>        -0.0175
     23 C19         1.5574   -2.3467   -8.7688 C.2       1 <0>         0.1380
     24 C20         1.8188   -3.2564   -9.8844 C.ar      1 <0>        -0.0574
     25 C21         0.7864   -3.7853  -10.6614 C.ar      1 <0>        -0.0983
     26 C22         1.0816   -4.6312  -11.6938 C.ar      1 <0>        -0.0877
     27 C23         2.3965   -4.9736  -11.9820 C.ar      1 <0>        -0.1124
     28 C24         3.4356   -4.4675  -11.2323 C.ar      1 <0>        -0.0546
     29 C25         3.1584   -3.6021  -10.1748 C.ar      1 <0>        -0.1262
     30 C26         4.2206   -3.0286   -9.3394 C.2       1 <0>         0.5283
     31 N3          3.8774   -2.1984   -8.3326 N.am      1 <0>        -0.5328
     32 N4          2.5464   -1.8708   -8.0726 N.2       1 <0>        -0.2131
     33 O2          5.3897   -3.2974   -9.5509 O.2       1 <0>        -0.5237
     34 H1          1.1895   -5.6849   -2.5797 H         1 <0>         0.0845
     35 H2          2.3675   -4.4327   -3.0408 H         1 <0>         0.0966
     36 H3          2.6583   -5.4423   -1.6040 H         1 <0>         0.0783
     37 H4          1.1343   -5.1378    2.4295 H         1 <0>         0.1373
     38 H5          0.7061   -5.1953    4.8509 H         1 <0>         0.1332
     39 H6         -0.5474   -3.3725    5.9268 H         1 <0>         0.1310
     40 H7         -1.3798   -1.4826    4.5900 H         1 <0>         0.1340
     41 H8         -0.9542   -1.4007    2.1689 H         1 <0>         0.1277
     42 H9         -0.4876   -0.6558   -2.9034 H         1 <0>         0.4089
     43 H10         0.1610    1.4059   -4.2613 H         1 <0>         0.1245
     44 H11         0.2969    2.2847   -6.5559 H         1 <0>         0.1272
     45 H12         0.2872    0.7387   -8.4710 H         1 <0>         0.1224
     46 H13         0.0180   -2.5793   -5.8062 H         1 <0>         0.1385
     47 H14        -0.4306   -2.8492   -8.1776 H         1 <0>         0.1054
     48 H15        -0.3145   -1.4640   -9.2894 H         1 <0>         0.1067
     49 H16        -0.2404   -3.5277  -10.4476 H         1 <0>         0.1414
     50 H17         0.2814   -5.0391  -12.2935 H         1 <0>         0.1360
     51 H18         2.6065   -5.6441  -12.8022 H         1 <0>         0.1368
     52 H19         4.4556   -4.7381  -11.4619 H         1 <0>         0.1429
     53 H20         4.5748   -1.8163   -7.7771 H         1 <0>         0.4359
@<TRIPOS>BOND
     1    1    2 1
     2    1   34 1
     3    1   35 1
     4    1   36 1
     5    2    6 1
     6    2    3 2
     7    3    4 1
     8    3   13 1
     9    4    5 1
    10    5    6 2
    11    5    7 1
    12    7   12 ar
    13    7    8 ar
    14    8    9 ar
    15    8   37 1
    16    9   10 ar
    17    9   38 1
    18   10   11 ar
    19   10   39 1
    20   11   12 ar
    21   11   40 1
    22   12   41 1
    23   13   14 2
    24   13   15 am
    25   15   16 1
    26   15   42 1
    27   16   21 ar
    28   16   17 ar
    29   17   18 ar
    30   17   43 1
    31   18   19 ar
    32   18   44 1
    33   19   20 ar
    34   19   45 1
    35   20   21 ar
    36   20   22 1
    37   21   46 1
    38   22   23 1
    39   22   47 1
    40   22   48 1
    41   23   32 2
    42   23   24 1
    43   24   29 ar
    44   24   25 ar
    45   25   26 ar
    46   25   49 1
    47   26   27 ar
    48   26   50 1
    49   27   28 ar
    50   27   51 1
    51   28   29 ar
    52   28   52 1
    53   29   30 1
    54   30   31 am
    55   30   33 2
    56   31   32 1
    57   31   53 1
@<TRIPOS>MOLECULE
CHEMBL105765
   66    69     0     0     0
SMALL
USER_CHARGES

@<TRIPOS>ATOM
      1 C1         -0.0167    1.3818    0.0096 C.ar      1 <0>        -0.2918
      2 C2          1.1915    2.0609    0.0018 C.ar      1 <0>         0.1945
      3 N1          2.3197    1.3705   -0.0127 N.ar      1 <0>        -0.5713
      4 C3          2.3029    0.0457   -0.0197 C.ar      1 <0>         0.5652
      5 N2          1.1654   -0.6335   -0.0129 N.ar      1 <0>        -0.5716
      6 C4          0.0021   -0.0041    0.0020 C.ar      1 <0>         0.1944
      7 N3          3.5022   -0.6451   -0.0348 N.pl3     1 <0>        -0.5860
      8 C5          4.7817    0.0778   -0.0370 C.3       1 <0>         0.1143
      9 C6          5.6243   -0.4138    1.1465 C.3       1 <0>         0.0977
     10 N4          5.6410   -1.8833    1.1327 N.am      1 <0>        -0.6093
     11 C7          4.3614   -2.6062    1.1349 C.3       1 <0>         0.0883
     12 C8          3.5188   -2.1146   -0.0429 C.3       1 <0>         0.1124
     13 C9          6.8088   -2.5560    1.1180 C.2       1 <0>         0.5135
     14 O1          7.8585   -1.9485    1.1160 O.2       1 <0>        -0.5335
     15 C10         6.8102   -4.0629    1.1041 C.3       1 <0>         0.1000
     16 N5          8.1919   -4.5498    1.0895 N.am      1 <0>        -0.7227
     17 C11         8.4394   -5.8746    1.0754 C.2       1 <0>         0.5157
     18 O2          7.5184   -6.6636    1.0748 O.2       1 <0>        -0.5390
     19 C12         9.8607   -6.3754    1.0604 C.3       1 <0>        -0.1395
     20 C13         9.8621   -7.9054    1.0462 C.3       1 <0>        -0.1037
     21 C14        11.3051   -8.4139    1.0310 C.3       1 <0>        -0.1167
     22 C15        11.3065   -9.9438    1.0169 C.3       1 <0>        -0.1391
     23 C16        12.7495  -10.4523    1.0016 C.3       1 <0>         0.0988
     24 N6         12.7509  -11.9172    0.9881 N.am      1 <0>        -0.5379
     25 C17        12.7547  -12.5983    2.1954 C.2       1 <0>         0.2169
     26 C18        12.7321  -13.9332    2.1697 C.2       1 <0>        -0.2520
     27 C19        12.7569  -14.5999    0.9063 C.2       1 <0>         0.5552
     28 O3         12.7737  -15.8169    0.8670 O.2       1 <0>        -0.5069
     29 N7         12.7614  -13.8980   -0.2376 N.am      1 <0>        -0.6570
     30 H1         12.7746  -14.3562   -1.0925 H         1 <0>         0.4343
     31 C20        12.7430  -12.5526   -0.1887 C.2       1 <0>         0.6981
     32 O4         12.7232  -11.9109   -1.2212 O.2       1 <0>        -0.5334
     33 C21        12.6538  -14.8446    3.3690 C.3       1 <0>        -0.0090
     34 S1         13.1672  -13.9577    4.8662 S.3       1 <0>        -0.2369
     35 C22        12.2877  -12.3740    4.6733 C.3       1 <0>        -0.0827
     36 C23        12.8089  -11.7115    3.4060 C.3       1 <0>        -0.1025
     37 H2         -0.9525    1.9208    0.0259 H         1 <0>         0.1452
     38 H3          1.2116    3.1407    0.0070 H         1 <0>         0.1682
     39 H4         -0.9219   -0.5632    0.0082 H         1 <0>         0.1683
     40 H5          5.3111   -0.1183   -0.9694 H         1 <0>         0.0720
     41 H6          4.5978    1.1474    0.0642 H         1 <0>         0.1133
     42 H7          6.6423   -0.0356    1.0529 H         1 <0>         0.1086
     43 H8          5.1849   -0.0617    2.0797 H         1 <0>         0.0755
     44 H9          4.5453   -3.6758    1.0337 H         1 <0>         0.1020
     45 H10         3.8320   -2.4101    2.0673 H         1 <0>         0.0810
     46 H11         2.5011   -2.4925    0.0544 H         1 <0>         0.1148
     47 H12         3.9562   -2.4704   -0.9758 H         1 <0>         0.0727
     48 H13         6.3033   -4.4350    1.9944 H         1 <0>         0.1002
     49 H14         6.2903   -4.4185    0.2145 H         1 <0>         0.1003
     50 H15         8.9285   -3.9188    1.0899 H         1 <0>         0.4129
     51 H16        10.3676   -6.0034    0.1701 H         1 <0>         0.0973
     52 H17        10.3806   -6.0198    1.9499 H         1 <0>         0.0970
     53 H18         9.3551   -8.2774    1.9365 H         1 <0>         0.0717
     54 H19         9.3422   -8.2610    0.1567 H         1 <0>         0.0723
     55 H20        11.8120   -8.0418    0.1407 H         1 <0>         0.0713
     56 H21        11.8250   -8.0583    1.9206 H         1 <0>         0.0690
     57 H22        10.7996  -10.3159    1.9072 H         1 <0>         0.0706
     58 H23        10.7866  -10.2994    0.1273 H         1 <0>         0.0765
     59 H24        13.2565  -10.0802    0.1113 H         1 <0>         0.1074
     60 H25        13.2694  -10.0967    1.8912 H         1 <0>         0.1011
     61 H26        11.6286  -15.1945    3.4903 H         1 <0>         0.1020
     62 H27        13.3093  -15.7017    3.2145 H         1 <0>         0.1270
     63 H28        11.2165  -12.5542    4.5830 H         1 <0>         0.0956
     64 H29        12.4849  -11.7341    5.5334 H         1 <0>         0.1254
     65 H30        13.8433  -11.4099    3.5707 H         1 <0>         0.1148
     66 H31        12.2156  -10.8183    3.2105 H         1 <0>         0.1093
@<TRIPOS>BOND
     1    1    6 ar
     2    1    2 ar
     3    1   37 1
     4    2    3 ar
     5    2   38 1
     6    3    4 ar
     7    4    5 ar
     8    4    7 1
     9    5    6 ar
    10    6   39 1
    11    7   12 1
    12    7    8 1
    13    8    9 1
    14    8   40 1
    15    8   41 1
    16    9   10 1
    17    9   42 1
    18    9   43 1
    19   10   11 1
    20   10   13 am
    21   11   12 1
    22   11   44 1
    23   11   45 1
    24   12   46 1
    25   12   47 1
    26   13   14 2
    27   13   15 1
    28   15   16 1
    29   15   48 1
    30   15   49 1
    31   16   17 am
    32   16   50 1
    33   17   18 2
    34   17   19 1
    35   19   20 1
    36   19   51 1
    37   19   52 1
    38   20   21 1
    39   20   53 1
    40   20   54 1
    41   21   22 1
    42   21   55 1
    43   21   56 1
    44   22   23 1
    45   22   57 1
    46   22   58 1
    47   23   24 1
    48   23   59 1
    49   23   60 1
    50   24   31 am
    51   24   25 1
    52   25   36 1
    53   25   26 2
    54   26   27 1
    55   26   33 1
    56   27   28 2
    57   27   29 am
    58   29   30 1
    59   29   31 am
    60   31   32 2
    61   33   34 1
    62   33   61 1
    63   33   62 1
    64   34   35 1
    65   35   36 1
    66   35   63 1
    67   35   64 1
    68   36   65 1
    69   36   66 1
@<TRIPOS>MOLECULE
CHEMBL197192
   46    49     0     0     0
SMALL
USER_CHARGES

@<TRIPOS>ATOM
      1 C1         -0.0187    1.5258    0.0104 C.3       1 <0>        -0.1363
      2 C2          0.0021   -0.0041    0.0020 C.3       1 <0>        -0.0937
      3 C3         -1.4286   -0.5670    0.1237 C.3       1 <0>        -0.1493
      4 C4         -1.3908   -1.3558    1.4144 C.2       1 <0>         0.5283
      5 O1         -2.3221   -1.9690    1.8901 O.2       1 <0>        -0.4675
      6 N1         -0.1658   -1.2697    1.9475 N.am      1 <0>        -0.5302
      7 C5          0.6979   -0.5340    1.2368 C.2       1 <0>         0.5332
      8 O2          1.8543   -0.3258    1.5350 O.2       1 <0>        -0.4583
      9 C6          0.1839   -1.8982    3.1520 C.ar      1 <0>         0.0755
     10 C7          0.6968   -3.1876    3.1402 C.ar      1 <0>        -0.0548
     11 C8          1.0409   -3.8041    4.3276 C.ar      1 <0>        -0.0777
     12 C9          0.8746   -3.1386    5.5283 C.ar      1 <0>        -0.0590
     13 C10         0.3641   -1.8539    5.5453 C.ar      1 <0>        -0.1418
     14 C11         0.0229   -1.2286    4.3595 C.ar      1 <0>         0.1210
     15 F1         -0.4708    0.0288    4.3753 F         1 <0>        -0.1307
     16 C12         1.5978   -5.2044    4.3145 C.3       1 <0>        -0.0163
     17 C13         3.0994   -5.1467    4.2011 C.2       1 <0>         0.1353
     18 C14         3.8780   -6.3847    4.1620 C.ar      1 <0>        -0.0595
     19 C15         3.2701   -7.6399    4.2265 C.ar      1 <0>        -0.0979
     20 C16         4.0409   -8.7679    4.1859 C.ar      1 <0>        -0.0871
     21 C17         5.4235   -8.6841    4.0816 C.ar      1 <0>        -0.1105
     22 C18         6.0509   -7.4594    4.0165 C.ar      1 <0>        -0.0544
     23 C19         5.2847   -6.2951    4.0553 C.ar      1 <0>        -0.1253
     24 C20         5.8929   -4.9606    3.9889 C.2       1 <0>         0.5283
     25 N2          5.0886   -3.8780    4.0323 N.am      1 <0>        -0.5321
     26 N3          3.7022   -3.9972    4.1327 N.2       1 <0>        -0.2187
     27 O3          7.1008   -4.8330    3.8969 O.2       1 <0>        -0.5202
     28 C21         0.6832   -0.5248   -1.2652 C.3       1 <0>        -0.1349
     29 H1          1.0039    1.9031    0.0027 H         1 <0>         0.0746
     30 H2         -0.5459    1.8868   -0.8726 H         1 <0>         0.0809
     31 H3         -0.5289    1.8773    0.9072 H         1 <0>         0.0640
     32 H4         -2.1552    0.2429    0.1902 H         1 <0>         0.1273
     33 H5         -1.6568   -1.2202   -0.7186 H         1 <0>         0.1274
     34 H6          0.8266   -3.7090    2.2033 H         1 <0>         0.1344
     35 H7          1.1439   -3.6237    6.4550 H         1 <0>         0.1408
     36 H8          0.2350   -1.3369    6.4847 H         1 <0>         0.1466
     37 H9          1.3225   -5.7136    5.2380 H         1 <0>         0.1132
     38 H10         1.1898   -5.7497    3.4634 H         1 <0>         0.1094
     39 H11         2.1961   -7.7192    4.3085 H         1 <0>         0.1421
     40 H12         3.5685   -9.7378    4.2360 H         1 <0>         0.1369
     41 H13         6.0128   -9.5886    4.0516 H         1 <0>         0.1376
     42 H14         7.1263   -7.4016    3.9355 H         1 <0>         0.1436
     43 H15         1.7046   -0.1468   -1.3102 H         1 <0>         0.0747
     44 H16         0.6995   -1.6145   -1.2473 H         1 <0>         0.0626
     45 H17         0.1308   -0.1840   -2.1408 H         1 <0>         0.0808
     46 H18         5.4845   -2.9936    3.9889 H         1 <0>         0.4375
@<TRIPOS>BOND
     1    1    2 1
     2    1   29 1
     3    1   30 1
     4    1   31 1
     5    2    7 1
     6    2    3 1
     7    2   28 1
     8    3    4 1
     9    3   32 1
    10    3   33 1
    11    4    5 2
    12    4    6 am
    13    6    7 am
    14    6    9 1
    15    7    8 2
    16    9   14 ar
    17    9   10 ar
    18   10   11 ar
    19   10   34 1
    20   11   12 ar
    21   11   16 1
    22   12   13 ar
    23   12   35 1
    24   13   14 ar
    25   13   36 1
    26   14   15 1
    27   16   17 1
    28   16   37 1
    29   16   38 1
    30   17   26 2
    31   17   18 1
    32   18   23 ar
    33   18   19 ar
    34   19   20 ar
    35   19   39 1
    36   20   21 ar
    37   20   40 1
    38   21   22 ar
    39   21   41 1
    40   22   23 ar
    41   22   42 1
    42   23   24 1
    43   24   25 am
    44   24   27 2
    45   25   26 1
    46   25   46 1
    47   28   43 1
    48   28   44 1
    49   28   45 1
@<TRIPOS>MOLECULE
CHEMBL519778
   44    47     0     0     0
SMALL
USER_CHARGES

@<TRIPOS>ATOM
      1 C1         -0.0178    1.4648    0.0101 C.3       1 <0>         0.0135
      2 N1          0.0021   -0.0041    0.0020 N.3       1 <0>        -0.5268
      3 C2          0.7062   -0.5275    1.1802 C.3       1 <0>         0.0966
      4 C3         -0.0734   -0.1864    2.4240 C.ar      1 <0>        -0.0828
      5 C4          0.1690    1.0019    3.0875 C.ar      1 <0>        -0.1141
      6 C5         -0.5461    1.3148    4.2284 C.ar      1 <0>        -0.1222
      7 C6         -1.5040    0.4397    4.7055 C.ar      1 <0>        -0.1173
      8 C7         -1.7471   -0.7481    4.0414 C.ar      1 <0>        -0.1204
      9 C8         -1.0349   -1.0590    2.8981 C.ar      1 <0>        -0.0947
     10 C9          0.5996   -0.5156   -1.2387 C.3       1 <0>         0.1321
     11 C10        -0.2863   -0.1627   -2.4056 C.2       1 <0>         0.2986
     12 N2         -1.2568   -0.9031   -2.8556 N.2       1 <0>        -0.4622
     13 C11        -1.8453   -0.2856   -3.9127 C.ar      1 <0>         0.0388
     14 C12        -2.8405   -0.6678   -4.8166 C.ar      1 <0>        -0.0282
     15 C13        -3.2223    0.1943   -5.8223 C.ar      1 <0>        -0.1391
     16 C14        -2.6551    1.4492   -5.9330 C.ar      1 <0>        -0.0311
     17 C15        -1.6693    1.8648   -5.0330 C.ar      1 <0>        -0.1299
     18 C16        -1.2255    0.9648   -4.0557 C.ar      1 <0>         0.0793
     19 N3         -0.1919    0.9785   -3.1381 N.pl3     1 <0>        -0.4859
     20 C17         0.8032    2.0205   -3.0410 C.3       1 <0>         0.0810
     21 C18         1.0935    2.6776   -4.3677 C.3       1 <0>         0.0955
     22 N4          0.0811    3.6232   -4.7737 N.am      1 <0>        -0.7186
     23 C19        -1.1570    3.2360   -5.1128 C.2       1 <0>         0.5620
     24 O1         -1.9197    4.0984   -5.5040 O.2       1 <0>        -0.5345
     25 H1          1.0047    1.8421    0.0024 H         1 <0>         0.0297
     26 H2         -0.5450    1.8259   -0.8730 H         1 <0>         0.0641
     27 H3         -0.5280    1.8163    0.9069 H         1 <0>         0.0800
     28 H4          0.8004   -1.6101    1.0960 H         1 <0>         0.0905
     29 H5          1.6983   -0.0800    1.2392 H         1 <0>         0.0482
     30 H6          0.9174    1.6855    2.7148 H         1 <0>         0.1172
     31 H7         -0.3562    2.2428    4.7472 H         1 <0>         0.1213
     32 H8         -2.0622    0.6839    5.5972 H         1 <0>         0.1215
     33 H9         -2.4952   -1.4319    4.4143 H         1 <0>         0.1230
     34 H10        -1.2275   -1.9853    2.3772 H         1 <0>         0.1243
     35 H11         1.5829   -0.0671   -1.3803 H         1 <0>         0.0580
     36 H12         0.7003   -1.5990   -1.1736 H         1 <0>         0.1162
     37 H13        -3.3092   -1.6367   -4.7276 H         1 <0>         0.1385
     38 H14        -3.9743   -0.1154   -6.5329 H         1 <0>         0.1411
     39 H15        -2.9756    2.1143   -6.7213 H         1 <0>         0.1418
     40 H16         0.4505    2.7793   -2.3425 H         1 <0>         0.0859
     41 H17         1.7262    1.5900   -2.6524 H         1 <0>         0.1061
     42 H18         2.0492    3.1973   -4.2984 H         1 <0>         0.1129
     43 H19         1.1745    1.9034   -5.1307 H         1 <0>         0.0794
     44 H20         0.3079    4.5656   -4.8105 H         1 <0>         0.4108
@<TRIPOS>BOND
     1    1    2 1
     2    1   25 1
     3    1   26 1
     4    1   27 1
     5    2    3 1
     6    2   10 1
     7    3    4 1
     8    3   28 1
     9    3   29 1
    10    4    9 ar
    11    4    5 ar
    12    5    6 ar
    13    5   30 1
    14    6    7 ar
    15    6   31 1
    16    7    8 ar
    17    7   32 1
    18    8    9 ar
    19    8   33 1
    20    9   34 1
    21   10   11 1
    22   10   35 1
    23   10   36 1
    24   11   19 1
    25   11   12 2
    26   12   13 1
    27   13   18 ar
    28   13   14 ar
    29   14   15 ar
    30   14   37 1
    31   15   16 ar
    32   15   38 1
    33   16   17 ar
    34   16   39 1
    35   17   23 1
    36   17   18 ar
    37   18   19 1
    38   19   20 1
    39   20   21 1
    40   20   40 1
    41   20   41 1
    42   21   22 1
    43   21   42 1
    44   21   43 1
    45   22   23 am
    46   22   44 1
    47   23   24 2
@<TRIPOS>MOLECULE
CHEMBL519778__1
   45    48     0     0     0
SMALL
USER_CHARGES

@<TRIPOS>ATOM
      1 C1         -0.0178    1.4648    0.0101 C.3       1 <0>        -0.0617
      2 N1          0.0021   -0.0041    0.0020 N.4       1 <0>        -0.3845
      3 C2         -1.3761   -0.5125    0.0124 C.3       1 <0>         0.0453
      4 C3         -2.0674   -0.1162   -1.2666 C.ar      1 <0>        -0.1644
      5 C4         -2.7504    1.0834   -1.3400 C.ar      1 <0>        -0.0968
      6 C5         -3.3846    1.4470   -2.5133 C.ar      1 <0>        -0.1146
      7 C6         -3.3354    0.6112   -3.6132 C.ar      1 <0>        -0.0818
      8 C7         -2.6517   -0.5879   -3.5401 C.ar      1 <0>        -0.1126
      9 C8         -2.0139   -0.9496   -2.3682 C.ar      1 <0>        -0.0909
     10 C9          0.7126   -0.4907    1.1921 C.3       1 <0>         0.0870
     11 C10         2.1584   -0.0720    1.1202 C.2       1 <0>         0.2027
     12 N2          3.1094   -0.7674    0.5683 N.2       1 <0>        -0.4296
     13 C11         4.2854   -0.0970    0.6815 C.ar      1 <0>         0.0310
     14 C12         5.6088   -0.4184    0.3670 C.ar      1 <0>        -0.0175
     15 C13         6.6149    0.4884    0.6233 C.ar      1 <0>        -0.1284
     16 C14         6.3307    1.7289    1.1610 C.ar      1 <0>        -0.0061
     17 C15         5.0143    2.0841    1.4702 C.ar      1 <0>        -0.1323
     18 C16         3.9983    1.1385    1.2809 C.ar      1 <0>         0.0983
     19 N3          2.6585    1.0902    1.6174 N.pl3     1 <0>        -0.4774
     20 C17         1.9714    2.0981    2.3901 C.3       1 <0>         0.0730
     21 C18         2.8733    2.7911    3.3814 C.3       1 <0>         0.0920
     22 N4          3.7359    3.7797    2.7792 N.am      1 <0>        -0.7186
     23 C19         4.7301    3.4414    1.9458 C.2       1 <0>         0.5574
     24 O1          5.4435    4.3389    1.5410 O.2       1 <0>        -0.5199
     25 H1          1.0047    1.8421    0.0024 H         1 <0>         0.1152
     26 H2         -0.5450    1.8259   -0.8730 H         1 <0>         0.1328
     27 H3         -0.5280    1.8163    0.9069 H         1 <0>         0.1256
     28 H4         -1.3618   -1.5992    0.0960 H         1 <0>         0.1429
     29 H5         -1.9129   -0.0898    0.8617 H         1 <0>         0.1392
     30 H6         -2.7889    1.7364   -0.4807 H         1 <0>         0.1307
     31 H7         -3.9188    2.3839   -2.5704 H         1 <0>         0.1364
     32 H8         -3.8315    0.8950   -4.5296 H         1 <0>         0.1365
     33 H9         -2.6135   -1.2411   -4.3994 H         1 <0>         0.1373
     34 H10        -1.4765   -1.8847   -2.3122 H         1 <0>         0.1334
     35 H11         0.2557   -0.0671    2.0865 H         1 <0>         0.1485
     36 H12         0.6508   -1.5782    1.2328 H         1 <0>         0.1674
     37 H13         5.8427   -1.3754   -0.0756 H         1 <0>         0.1470
     38 H14         7.6386    0.2257    0.4012 H         1 <0>         0.1520
     39 H15         7.1317    2.4297    1.3444 H         1 <0>         0.1522
     40 H16         1.5594    2.8429    1.7092 H         1 <0>         0.0914
     41 H17         1.1505    1.6273    2.9311 H         1 <0>         0.1101
     42 H18         2.2548    3.2793    4.1345 H         1 <0>         0.1202
     43 H19         3.4921    2.0412    3.8742 H         1 <0>         0.0832
     44 H20         3.5962    4.7156    2.9924 H         1 <0>         0.4160
     45 H21         0.4744   -0.3295   -0.8281 H         1 <0>         0.4325
@<TRIPOS>BOND
     1    1    2 1
     2    1   25 1
     3    1   26 1
     4    1   27 1
     5    2    3 1
     6    2   10 1
     7    2   45 1
     8    3    4 1
     9    3   28 1
    10    3   29 1
    11    4    9 ar
    12    4    5 ar
    13    5    6 ar
    14    5   30 1
    15    6    7 ar
    16    6   31 1
    17    7    8 ar
    18    7   32 1
    19    8    9 ar
    20    8   33 1
    21    9   34 1
    22   10   11 1
    23   10   35 1
    24   10   36 1
    25   11   19 1
    26   11   12 2
    27   12   13 1
    28   13   18 ar
    29   13   14 ar
    30   14   15 ar
    31   14   37 1
    32   15   16 ar
    33   15   38 1
    34   16   17 ar
    35   16   39 1
    36   17   23 1
    37   17   18 ar
    38   18   19 1
    39   19   20 1
    40   20   21 1
    41   20   40 1
    42   20   41 1
    43   21   22 1
    44   21   42 1
    45   21   43 1
    46   22   23 am
    47   22   44 1
    48   23   24 2
@<TRIPOS>MOLECULE
CHEMBL555350
   37    40     0     0     0
SMALL
USER_CHARGES

@<TRIPOS>ATOM
      1 C1         -0.0167    1.3798    0.0096 C.ar      1 <0>        -0.0945
      2 C2          1.1668    2.0906    0.0021 C.ar      1 <0>        -0.0859
      3 C3          2.3815    1.4176   -0.0136 C.ar      1 <0>         0.1199
      4 C4          2.4013    0.0221   -0.0213 C.ar      1 <0>         0.1660
      5 C5          1.2037   -0.6831   -0.0131 C.ar      1 <0>        -0.1114
      6 C6          0.0021   -0.0041    0.0020 C.ar      1 <0>        -0.1263
      7 C7         -1.2943   -0.7725    0.0108 C.3       1 <0>         0.0491
      8 N1         -1.7293   -1.0147   -1.3713 N.4       1 <0>        -0.3940
      9 C8         -0.8085   -1.9707   -2.0379 C.3       1 <0>        -0.0087
     10 C9         -1.6659   -2.5396   -3.1962 C.3       1 <0>        -0.1455
     11 C10        -3.0726   -2.6480   -2.5642 C.3       1 <0>        -0.1454
     12 C11        -3.0591   -1.6620   -1.3813 C.3       1 <0>        -0.0088
     13 N2          3.6111   -0.6686   -0.0375 N.am      1 <0>        -0.6464
     14 H1          3.6119   -1.6385   -0.0433 H         1 <0>         0.4313
     15 C12         4.7806    0.0017   -0.0455 C.2       1 <0>         0.6003
     16 O1          5.8348   -0.6059   -0.0601 O.2       1 <0>        -0.4594
     17 C13         4.7739    1.4734   -0.0371 C.2       1 <0>         0.1382
     18 N3          3.5763    2.1369   -0.0220 N.pl3     1 <0>        -0.3926
     19 C14         3.8553    3.4663   -0.0185 C.2       1 <0>        -0.0122
     20 C15         5.2061    3.5886   -0.0319 C.2       1 <0>         0.0039
     21 N4          5.7395    2.3687   -0.0418 N.2       1 <0>        -0.3939
     22 H2         -0.9601    1.9053    0.0260 H         1 <0>         0.1484
     23 H3          1.1480    3.1704    0.0081 H         1 <0>         0.1527
     24 H4          1.2133   -1.7630   -0.0190 H         1 <0>         0.1505
     25 H5         -1.1480   -1.7261    0.5181 H         1 <0>         0.1398
     26 H6         -2.0554   -0.1949    0.5353 H         1 <0>         0.1428
     27 H7          0.0683   -1.4528   -2.4267 H         1 <0>         0.1332
     28 H8         -0.5147   -2.7644   -1.3510 H         1 <0>         0.1337
     29 H9         -1.6752   -1.8528   -4.0426 H         1 <0>         0.0980
     30 H10        -1.3024   -3.5216   -3.4990 H         1 <0>         0.1170
     31 H11        -3.8356   -2.3605   -3.2876 H         1 <0>         0.1056
     32 H12        -3.2504   -3.6629   -2.2087 H         1 <0>         0.1045
     33 H13        -3.2169   -2.2008   -0.4470 H         1 <0>         0.1325
     34 H14        -3.8370   -0.9104   -1.5155 H         1 <0>         0.1336
     35 H15         3.1375    4.2731   -0.0076 H         1 <0>         0.1975
     36 H16         5.7560    4.5181   -0.0332 H         1 <0>         0.1989
     37 H17        -1.7613   -0.1461   -1.8837 H         1 <0>         0.4275
@<TRIPOS>BOND
     1    1    6 ar
     2    1    2 ar
     3    1   22 1
     4    2    3 ar
     5    2   23 1
     6    3   18 1
     7    3    4 ar
     8    4    5 ar
     9    4   13 1
    10    5    6 ar
    11    5   24 1
    12    6    7 1
    13    7    8 1
    14    7   25 1
    15    7   26 1
    16    8   12 1
    17    8    9 1
    18    8   37 1
    19    9   10 1
    20    9   27 1
    21    9   28 1
    22   10   11 1
    23   10   29 1
    24   10   30 1
    25   11   12 1
    26   11   31 1
    27   11   32 1
    28   12   33 1
    29   12   34 1
    30   13   14 1
    31   13   15 am
    32   15   16 2
    33   15   17 1
    34   17   21 2
    35   17   18 1
    36   18   19 1
    37   19   20 2
    38   19   35 1
    39   20   21 1
    40   20   36 1
@<TRIPOS>MOLECULE
CHEMBL555350__1
   36    39     0     0     0
SMALL
USER_CHARGES

@<TRIPOS>ATOM
      1 C1         -0.0167    1.3827    0.0096 C.ar      1 <0>        -0.1673
      2 C2          1.1629    2.0970    0.0022 C.ar      1 <0>        -0.0796
      3 C3          2.3804    1.4283   -0.0130 C.ar      1 <0>         0.0213
      4 C4          2.4056    0.0234   -0.0208 C.ar      1 <0>         0.2086
      5 C5          1.1974   -0.6853   -0.0126 C.ar      1 <0>        -0.1137
      6 C6          0.0021   -0.0041    0.0020 C.ar      1 <0>        -0.1350
      7 C7         -1.2957   -0.7701    0.0108 C.3       1 <0>         0.0557
      8 N1         -1.7311   -1.0116   -1.3712 N.4       1 <0>        -0.3918
      9 C8         -0.8121   -1.9693   -2.0379 C.3       1 <0>        -0.0053
     10 C9         -1.6706   -2.5366   -3.1962 C.3       1 <0>        -0.1452
     11 C10        -3.0774   -2.6424   -2.5641 C.3       1 <0>        -0.1437
     12 C11        -3.0621   -1.6565   -1.3813 C.3       1 <0>        -0.0085
     13 N2          3.5851   -0.6477   -0.0366 N.2       1 <0>        -0.6231
     14 C12         4.7317   -0.0119   -0.0446 C.2       1 <0>         0.5089
     15 O1          5.8924   -0.7095   -0.0603 O.3       1 <0>        -0.6080
     16 C13         4.7578    1.4528   -0.0370 C.2       1 <0>         0.1583
     17 N3          3.5703    2.1379   -0.0210 N.pl3     1 <0>        -0.3732
     18 C14         3.8719    3.4641   -0.0165 C.2       1 <0>        -0.0669
     19 C15         5.2226    3.5644   -0.0291 C.2       1 <0>        -0.0121
     20 N4          5.7385    2.3347   -0.0424 N.2       1 <0>        -0.4403
     21 H1         -0.9611    1.9065    0.0260 H         1 <0>         0.1219
     22 H2          1.1402    3.1768    0.0079 H         1 <0>         0.1239
     23 H3          1.2041   -1.7652   -0.0191 H         1 <0>         0.1336
     24 H4         -1.1511   -1.7240    0.5181 H         1 <0>         0.1314
     25 H5         -2.0558   -0.1911    0.5354 H         1 <0>         0.1308
     26 H6          0.0656   -1.4530   -2.4267 H         1 <0>         0.1374
     27 H7         -0.5197   -2.7635   -1.3510 H         1 <0>         0.1340
     28 H8         -1.6786   -1.8498   -4.0425 H         1 <0>         0.0947
     29 H9         -1.3088   -3.5193   -3.4989 H         1 <0>         0.1139
     30 H10        -3.8399   -2.3536   -3.2875 H         1 <0>         0.1003
     31 H11        -3.2571   -3.6570   -2.2086 H         1 <0>         0.1008
     32 H12        -3.2209   -2.1949   -0.4469 H         1 <0>         0.1288
     33 H13        -3.8386   -0.9034   -1.5155 H         1 <0>         0.1278
     34 H14         3.1674    4.2826   -0.0053 H         1 <0>         0.1771
     35 H15         5.7869    4.4853   -0.0299 H         1 <0>         0.1792
     36 H16        -1.7615   -0.1429   -1.8837 H         1 <0>         0.4252
@<TRIPOS>BOND
     1    1    6 ar
     2    1    2 ar
     3    1   21 1
     4    2    3 ar
     5    2   22 1
     6    3   17 1
     7    3    4 ar
     8    4    5 ar
     9    4   13 1
    10    5    6 ar
    11    5   23 1
    12    6    7 1
    13    7    8 1
    14    7   24 1
    15    7   25 1
    16    8   12 1
    17    8    9 1
    18    8   36 1
    19    9   10 1
    20    9   26 1
    21    9   27 1
    22   10   11 1
    23   10   28 1
    24   10   29 1
    25   11   12 1
    26   11   30 1
    27   11   31 1
    28   12   32 1
    29   12   33 1
    30   13   14 2
    31   14   15 1
    32   14   16 1
    33   16   20 2
    34   16   17 1
    35   17   18 1
    36   18   19 2
    37   18   34 1
    38   19   20 1
    39   19   35 1
@<TRIPOS>MOLECULE
CHEMBL497571
   35    38     0     0     0
SMALL
USER_CHARGES

@<TRIPOS>ATOM
      1 C1          0.2333    1.4517   -0.0074 C.3       1 <0>         0.0934
      2 N1          0.1074   -0.0078   -0.0053 N.pl3     1 <0>        -0.3778
      3 C2         -0.1066   -0.7756   -1.1016 C.2       1 <0>         0.3473
      4 C3         -0.1641   -2.1008   -0.6752 C.2       1 <0>        -0.2507
      5 C4         -0.3812   -3.1421   -1.6088 C.2       1 <0>         0.0771
      6 C5         -0.5372   -2.8270   -2.9163 C.2       1 <0>        -0.2170
      7 C6         -0.4674   -1.4745   -3.3199 C.2       1 <0>         0.5523
      8 O1         -0.5994   -1.1963   -4.5004 O.2       1 <0>        -0.5314
      9 N2         -0.2595   -0.4885   -2.4318 N.am      1 <0>        -0.6067
     10 H1         -0.2172    0.4321   -2.7344 H         1 <0>         0.4126
     11 C7         -0.7941   -3.8635   -3.9783 C.3       1 <0>        -0.0517
     12 C8         -0.4108   -5.2548   -3.4786 C.3       1 <0>        -0.1216
     13 C9         -1.0833   -5.4807   -2.1190 C.3       1 <0>        -0.1184
     14 C10        -0.4217   -4.5573   -1.0979 C.3       1 <0>        -0.0955
     15 C11         0.0346   -2.0805    0.7780 C.2       1 <0>         0.2138
     16 N3          0.1957   -0.8233    1.1273 N.2       1 <0>        -0.2399
     17 C12         0.0551   -3.2512    1.6777 C.2       1 <0>        -0.1077
     18 C13        -0.5465   -3.4128    2.8980 C.2       1 <0>        -0.1090
     19 C14        -0.3849   -4.6088    3.5622 C.2       1 <0>        -0.1633
     20 C15         0.3623   -5.5876    2.9904 C.2       1 <0>        -0.1684
     21 S1          0.8637   -4.8273    1.4550 S.3       1 <0>         0.0996
     22 H2          1.2786    1.7261   -0.1496 H         1 <0>         0.0836
     23 H3         -0.3649    1.8668   -0.8186 H         1 <0>         0.0878
     24 H4         -0.1202    1.8483    0.9444 H         1 <0>         0.1031
     25 H5         -1.8522   -3.8549   -4.2399 H         1 <0>         0.0747
     26 H6         -0.2042   -3.6247   -4.8632 H         1 <0>         0.0795
     27 H7         -0.7544   -6.0075   -4.1881 H         1 <0>         0.0733
     28 H8          0.6717   -5.3201   -3.3683 H         1 <0>         0.0670
     29 H9         -2.1456   -5.2476   -2.1912 H         1 <0>         0.0692
     30 H10        -0.9544   -6.5190   -1.8133 H         1 <0>         0.0744
     31 H11         0.5957   -4.9004   -0.9098 H         1 <0>         0.0928
     32 H12        -0.9879   -4.5870   -0.1670 H         1 <0>         0.0884
     33 H13        -1.1356   -2.6178    3.3309 H         1 <0>         0.1387
     34 H14        -0.8466   -4.7657    4.5259 H         1 <0>         0.1397
     35 H15         0.5910   -6.5741    3.3658 H         1 <0>         0.1908
@<TRIPOS>BOND
     1    1    2 1
     2    1   22 1
     3    1   23 1
     4    1   24 1
     5    2   16 1
     6    2    3 1
     7    3    9 1
     8    3    4 2
     9    4    5 1
    10    4   15 1
    11    5   14 1
    12    5    6 2
    13    6    7 1
    14    6   11 1
    15    7    8 2
    16    7    9 am
    17    9   10 1
    18   11   12 1
    19   11   25 1
    20   11   26 1
    21   12   13 1
    22   12   27 1
    23   12   28 1
    24   13   14 1
    25   13   29 1
    26   13   30 1
    27   14   31 1
    28   14   32 1
    29   15   16 2
    30   15   17 1
    31   17   21 1
    32   17   18 2
    33   18   19 1
    34   18   33 1
    35   19   20 2
    36   19   34 1
    37   20   21 1
    38   20   35 1
@<TRIPOS>MOLECULE
CHEMBL84371
   63    67     0     0     0
SMALL
USER_CHARGES

@<TRIPOS>ATOM
      1 C1         -0.0168    1.3865    0.0097 C.ar      1 <0>        -0.1100
      2 C2          1.1462    2.1050    0.0024 C.ar      1 <0>        -0.0969
      3 C3          2.3708    1.4346   -0.0126 C.ar      1 <0>        -0.0019
      4 C4          2.3954    0.0237   -0.0207 C.ar      1 <0>        -0.1238
      5 C5          1.1988   -0.6916   -0.0133 C.ar      1 <0>        -0.0823
      6 C6          0.0021   -0.0041    0.0020 C.ar      1 <0>         0.0901
      7 F1         -1.1625   -0.6888    0.0100 F         1 <0>        -0.1300
      8 C7          3.7032   -0.6397   -0.0374 C.2       1 <0>         0.5533
      9 N1          4.8148    0.1129   -0.0374 N.am      1 <0>        -0.6339
     10 C8          4.7985    1.4906   -0.0258 C.2       1 <0>         0.1533
     11 C9          3.6450    2.1690   -0.0221 C.2       1 <0>        -0.1703
     12 C10         3.5766    3.6753   -0.0438 C.3       1 <0>         0.1713
     13 N2          4.9055    4.2422    0.2047 N.am      1 <0>        -0.6155
     14 C11         6.0402    3.6142   -0.4939 C.3       1 <0>         0.1116
     15 C12         6.1450    2.1728   -0.0017 C.3       1 <0>        -0.1058
     16 C13         5.0810    5.2896    1.0345 C.2       1 <0>         0.5217
     17 O1          4.1269    5.7852    1.5958 O.2       1 <0>        -0.5312
     18 C14         6.4628    5.8450    1.2650 C.3       1 <0>        -0.1371
     19 C15         6.3838    7.0205    2.2411 C.3       1 <0>         0.0697
     20 N3          7.7307    7.5619    2.4657 N.3       1 <0>        -0.5412
     21 C16         8.5824    6.5847    3.1557 C.3       1 <0>         0.0499
     22 C17        10.0121    7.1236    3.2427 C.3       1 <0>        -0.1354
     23 C18        10.0063    8.4516    4.0050 C.3       1 <0>         0.0274
     24 C19         9.0744    9.4358    3.2926 C.3       1 <0>        -0.1349
     25 C20         7.6719    8.8299    3.2042 C.3       1 <0>         0.0572
     26 N4         11.3675    9.0028    4.0411 N.4       1 <0>        -0.3917
     27 C21        11.3947   10.2472    4.8516 C.3       1 <0>        -0.0060
     28 C22        12.8845   10.3727    5.2585 C.3       1 <0>        -0.1455
     29 C23        13.2994    8.9046    5.5084 C.3       1 <0>        -0.1450
     30 C24        12.2819    8.0593    4.7201 C.3       1 <0>        -0.0088
     31 O2          3.7797   -1.8552   -0.0506 O.2       1 <0>        -0.5144
     32 H1         -0.9635    1.9061    0.0260 H         1 <0>         0.1466
     33 H2          1.1179    3.1846    0.0079 H         1 <0>         0.1455
     34 H3          1.2081   -1.7716   -0.0192 H         1 <0>         0.1537
     35 H4          3.2183    4.0070   -1.0183 H         1 <0>         0.0860
     36 H5          2.8874    4.0171    0.7284 H         1 <0>         0.1056
     37 H6          5.8645    3.6258   -1.5695 H         1 <0>         0.0888
     38 H7          6.9600    4.1516   -0.2628 H         1 <0>         0.1002
     39 H8          6.5289    2.1703    1.0185 H         1 <0>         0.0948
     40 H9          6.8348    1.6250   -0.6437 H         1 <0>         0.1012
     41 H10         7.1018    5.0675    1.6836 H         1 <0>         0.0935
     42 H11         6.8797    6.1869    0.3176 H         1 <0>         0.1070
     43 H12         5.7448    7.7981    1.8225 H         1 <0>         0.0926
     44 H13         5.9669    6.6787    3.1885 H         1 <0>         0.0515
     45 H14         8.1972    6.4129    4.1608 H         1 <0>         0.0475
     46 H15         8.5811    5.6463    2.6012 H         1 <0>         0.0970
     47 H16        10.6405    6.4049    3.7687 H         1 <0>         0.0911
     48 H17        10.4029    7.2826    2.2377 H         1 <0>         0.0956
     49 H18         9.6522    8.2860    5.0224 H         1 <0>         0.1326
     50 H19         9.0329   10.3691    3.8542 H         1 <0>         0.0920
     51 H20         9.4504    9.6312    2.2884 H         1 <0>         0.0957
     52 H21         7.0093    9.5222    2.6848 H         1 <0>         0.0992
     53 H22         7.2910    8.6476    4.2090 H         1 <0>         0.0481
     54 H23        11.0862   11.1036    4.2521 H         1 <0>         0.1354
     55 H24        10.7623   10.1458    5.7336 H         1 <0>         0.1322
     56 H25        13.4704   10.8065    4.4482 H         1 <0>         0.0982
     57 H26        12.9872   10.9630    6.1691 H         1 <0>         0.1164
     58 H27        14.3081    8.7278    5.1351 H         1 <0>         0.1051
     59 H28        13.2423    8.6711    6.5716 H         1 <0>         0.1031
     60 H29        11.7190    7.4233    5.4032 H         1 <0>         0.1285
     61 H30        12.8002    7.4479    3.9813 H         1 <0>         0.1314
     62 H31         5.6743   -0.3366   -0.0457 H         1 <0>         0.4145
     63 H32        11.6927    9.1894    3.1044 H         1 <0>         0.4255
@<TRIPOS>BOND
     1    1    6 ar
     2    1    2 ar
     3    1   32 1
     4    2    3 ar
     5    2   33 1
     6    3   11 1
     7    3    4 ar
     8    4    5 ar
     9    4    8 1
    10    5    6 ar
    11    5   34 1
    12    6    7 1
    13    8    9 am
    14    8   31 2
    15    9   10 1
    16    9   62 1
    17   10   15 1
    18   10   11 2
    19   11   12 1
    20   12   13 1
    21   12   35 1
    22   12   36 1
    23   13   14 1
    24   13   16 am
    25   14   15 1
    26   14   37 1
    27   14   38 1
    28   15   39 1
    29   15   40 1
    30   16   17 2
    31   16   18 1
    32   18   19 1
    33   18   41 1
    34   18   42 1
    35   19   20 1
    36   19   43 1
    37   19   44 1
    38   20   25 1
    39   20   21 1
    40   21   22 1
    41   21   45 1
    42   21   46 1
    43   22   23 1
    44   22   47 1
    45   22   48 1
    46   23   24 1
    47   23   26 1
    48   23   49 1
    49   24   25 1
    50   24   50 1
    51   24   51 1
    52   25   52 1
    53   25   53 1
    54   26   30 1
    55   26   27 1
    56   26   63 1
    57   27   28 1
    58   27   54 1
    59   27   55 1
    60   28   29 1
    61   28   56 1
    62   28   57 1
    63   29   30 1
    64   29   58 1
    65   29   59 1
    66   30   60 1
    67   30   61 1
@<TRIPOS>MOLECULE
CHEMBL84371__1
   63    67     0     0     0
SMALL
USER_CHARGES

@<TRIPOS>ATOM
      1 C1          0.0413    1.2186    0.1592 C.ar      1 <0>        -0.1096
      2 C2          1.2071    1.9322    0.1400 C.ar      1 <0>        -0.0976
      3 C3          2.4289    1.2581    0.1839 C.ar      1 <0>        -0.0046
      4 C4          2.4479   -0.1515    0.2470 C.ar      1 <0>        -0.1219
      5 C5          1.2485   -0.8618    0.2656 C.ar      1 <0>        -0.0820
      6 C6          0.0545   -0.1707    0.2217 C.ar      1 <0>         0.0933
      7 F1         -1.1128   -0.8505    0.2400 F         1 <0>        -0.1283
      8 C7          3.7531   -0.8189    0.2906 C.2       1 <0>         0.5532
      9 N1          4.8675   -0.0707    0.2758 N.am      1 <0>        -0.6346
     10 C8          4.8566    1.3059    0.2180 C.2       1 <0>         0.1545
     11 C9          3.7061    1.9872    0.1638 C.2       1 <0>        -0.1730
     12 C10         3.6443    3.4907    0.0652 C.3       1 <0>         0.1725
     13 N2          4.9702    4.0653    0.3124 N.am      1 <0>        -0.6072
     14 C11         6.1164    3.3995   -0.3302 C.3       1 <0>         0.1083
     15 C12         6.2051    1.9843    0.2356 C.3       1 <0>        -0.1071
     16 C13         5.1330    5.1525    1.0921 C.2       1 <0>         0.5280
     17 O1          4.1697    5.6786    1.6079 O.2       1 <0>        -0.5246
     18 C14         6.5121    5.7145    1.3228 C.3       1 <0>        -0.1742
     19 C15         6.4179    6.9378    2.2370 C.3       1 <0>         0.0056
     20 N3          7.7623    7.4856    2.4619 N.4       1 <0>        -0.3834
     21 C16         8.5725    6.5048    3.1940 C.3       1 <0>        -0.0102
     22 C17         9.9975    7.0370    3.3602 C.3       1 <0>        -0.1407
     23 C18         9.9571    8.3533    4.1419 C.3       1 <0>         0.0626
     24 C19         9.0494    9.3441    3.4073 C.3       1 <0>        -0.1416
     25 C20         7.6595    8.7264    3.2394 C.3       1 <0>        -0.0023
     26 N4         11.3135    8.9087    4.2391 N.3       1 <0>        -0.5106
     27 C21        11.3144   10.1798    5.0076 C.3       1 <0>         0.0311
     28 C22        12.7914   10.3240    5.4528 C.3       1 <0>        -0.1261
     29 C23        13.2025    8.8665    5.7640 C.3       1 <0>        -0.1358
     30 C24        12.2102    7.9917    4.9756 C.3       1 <0>         0.0340
     31 O2          3.8248   -2.0337    0.3399 O.2       1 <0>        -0.5095
     32 H1         -0.9034    1.7413    0.1300 H         1 <0>         0.1474
     33 H2          1.1832    3.0108    0.0907 H         1 <0>         0.1447
     34 H3          1.2535   -1.9407    0.3140 H         1 <0>         0.1548
     35 H4          3.3075    3.7742   -0.9319 H         1 <0>         0.0907
     36 H5          2.9409    3.8730    0.8050 H         1 <0>         0.1085
     37 H6          5.9628    3.3576   -1.4086 H         1 <0>         0.0951
     38 H7          7.0334    3.9449   -0.1075 H         1 <0>         0.0975
     39 H8          6.5681    2.0319    1.2623 H         1 <0>         0.0958
     40 H9          6.9057    1.4028   -0.3637 H         1 <0>         0.1049
     41 H10         7.1392    4.9570    1.7930 H         1 <0>         0.1172
     42 H11         6.9497    6.0071    0.3683 H         1 <0>         0.1205
     43 H12         5.7909    7.6953    1.7668 H         1 <0>         0.1424
     44 H13         5.9804    6.6452    3.1915 H         1 <0>         0.1392
     45 H14         8.1329    6.3318    4.1763 H         1 <0>         0.1299
     46 H15         8.5977    5.5676    2.6380 H         1 <0>         0.1321
     47 H16        10.5970    6.3081    3.9055 H         1 <0>         0.1111
     48 H17        10.4382    7.2102    2.3784 H         1 <0>         0.0992
     49 H18         9.5639    8.1713    5.1420 H         1 <0>         0.0596
     50 H19         8.9712   10.2643    3.9863 H         1 <0>         0.1123
     51 H20         9.4704    9.5652    2.4265 H         1 <0>         0.0992
     52 H21         7.0107    9.4294    2.7169 H         1 <0>         0.1362
     53 H22         7.2394    8.5061    4.2207 H         1 <0>         0.1295
     54 H23        11.0213   11.0145    4.3709 H         1 <0>         0.0871
     55 H24        10.6570   10.1061    5.8739 H         1 <0>         0.0495
     56 H25        13.3995   10.7322    4.6455 H         1 <0>         0.0792
     57 H26        12.8664   10.9449    6.3455 H         1 <0>         0.0780
     58 H27        14.2220    8.6806    5.4261 H         1 <0>         0.0783
     59 H28        13.1152    8.6687    6.8323 H         1 <0>         0.0711
     60 H29        11.6293    7.3771    5.6634 H         1 <0>         0.0474
     61 H30        12.7511    7.3576    4.2731 H         1 <0>         0.0843
     62 H31         8.1974    7.6820    1.5730 H         1 <0>         0.4237
     63 H32         5.7252   -0.5227    0.3078 H         1 <0>         0.4155
@<TRIPOS>BOND
     1    1    6 ar
     2    1    2 ar
     3    1   32 1
     4    2    3 ar
     5    2   33 1
     6    3   11 1
     7    3    4 ar
     8    4    5 ar
     9    4    8 1
    10    5    6 ar
    11    5   34 1
    12    6    7 1
    13    8    9 am
    14    8   31 2
    15    9   10 1
    16    9   63 1
    17   10   15 1
    18   10   11 2
    19   11   12 1
    20   12   13 1
    21   12   35 1
    22   12   36 1
    23   13   14 1
    24   13   16 am
    25   14   15 1
    26   14   37 1
    27   14   38 1
    28   15   39 1
    29   15   40 1
    30   16   17 2
    31   16   18 1
    32   18   19 1
    33   18   41 1
    34   18   42 1
    35   19   20 1
    36   19   43 1
    37   19   44 1
    38   20   25 1
    39   20   21 1
    40   20   62 1
    41   21   22 1
    42   21   45 1
    43   21   46 1
    44   22   23 1
    45   22   47 1
    46   22   48 1
    47   23   24 1
    48   23   26 1
    49   23   49 1
    50   24   25 1
    51   24   50 1
    52   24   51 1
    53   25   52 1
    54   25   53 1
    55   26   30 1
    56   26   27 1
    57   27   28 1
    58   27   54 1
    59   27   55 1
    60   28   29 1
    61   28   56 1
    62   28   57 1
    63   29   30 1
    64   29   58 1
    65   29   59 1
    66   30   60 1
    67   30   61 1
@<TRIPOS>MOLECULE
CHEMBL108968
   58    61     0     0     0
SMALL
USER_CHARGES

@<TRIPOS>ATOM
      1 C1         -0.4522    0.5660   -1.2483 C.ar      1 <0>        -0.0782
      2 C2          0.3499    0.5655   -2.3758 C.ar      1 <0>        -0.1302
      3 C3          1.5722   -0.0735   -2.3563 C.ar      1 <0>        -0.0516
      4 C4          1.9996   -0.7207   -1.1951 C.ar      1 <0>        -0.1291
      5 C5          1.1851   -0.7162   -0.0609 C.ar      1 <0>        -0.0607
      6 C6         -0.0349   -0.0734   -0.0943 C.ar      1 <0>        -0.1321
      7 C7          3.3070   -1.4074   -1.1669 C.2       1 <0>         0.5123
      8 O1          4.0132   -1.4099   -2.1553 O.2       1 <0>        -0.4828
      9 O2          3.7165   -2.0310   -0.0446 O.3       1 <0>        -0.2945
     10 C8          4.8760   -2.7346   -0.0936 C.ar      1 <0>         0.1245
     11 C9          6.0945   -2.0654   -0.0588 C.ar      1 <0>        -0.1314
     12 C10         7.2731   -2.7742   -0.1077 C.ar      1 <0>        -0.0385
     13 C11         7.2439   -4.1715   -0.1926 C.ar      1 <0>        -0.1707
     14 C12         6.0143   -4.8403   -0.2273 C.ar      1 <0>        -0.0549
     15 C13         4.8415   -4.1225   -0.1725 C.ar      1 <0>        -0.1290
     16 C14         8.4990   -4.9330   -0.2456 C.2       1 <0>         0.3965
     17 O3          9.5630   -4.3515   -0.2158 O.2       1 <0>        -0.4435
     18 C15         8.4646   -6.4369   -0.3370 C.3       1 <0>         0.0724
     19 N1          9.8343   -6.9552   -0.3757 N.am      1 <0>        -0.7234
     20 C16        10.0502   -8.2831   -0.4577 C.2       1 <0>         0.5258
     21 O4          9.1106   -9.0488   -0.4993 O.2       1 <0>        -0.5325
     22 C17        11.4592   -8.8163   -0.4976 C.3       1 <0>        -0.1630
     23 C18        11.4242  -10.3431   -0.5903 C.3       1 <0>         0.1166
     24 N2         12.7939  -10.8614   -0.6291 N.am      1 <0>        -0.5391
     25 C19        13.4157  -11.0193   -1.8579 C.2       1 <0>         0.2145
     26 C20        14.6725  -11.4704   -1.8784 C.2       1 <0>        -0.2478
     27 C21        15.3015  -11.8179   -0.6436 C.2       1 <0>         0.5552
     28 O5         16.4342  -12.2651   -0.6488 O.2       1 <0>        -0.5050
     29 N3         14.6565  -11.6559    0.5222 N.am      1 <0>        -0.6561
     30 H1         15.0900  -11.8901    1.3577 H         1 <0>         0.4350
     31 C22        13.4042  -11.1612    0.5224 C.2       1 <0>         0.6982
     32 O6         12.8228  -10.9898    1.5764 O.2       1 <0>        -0.5313
     33 C23        15.5390  -11.6335   -3.1022 C.3       1 <0>        -0.0101
     34 S1         14.5108  -11.6941   -4.5960 S.3       1 <0>        -0.2344
     35 C24        13.3432  -10.3291   -4.2924 C.3       1 <0>        -0.0832
     36 C25        12.5535  -10.6719   -3.0371 C.3       1 <0>        -0.1029
     37 H2         -1.4063    1.0716   -1.2676 H         1 <0>         0.1329
     38 H3          0.0179    1.0661   -3.2734 H         1 <0>         0.1363
     39 H4          2.1971   -0.0734   -3.2372 H         1 <0>         0.1393
     40 H5          1.5097   -1.2148    0.8405 H         1 <0>         0.1399
     41 H6         -0.6658   -0.0692    0.7822 H         1 <0>         0.1350
     42 H7          6.1159   -0.9876    0.0063 H         1 <0>         0.1382
     43 H8          8.2189   -2.2535   -0.0811 H         1 <0>         0.1449
     44 H9          5.9864   -5.9180   -0.2927 H         1 <0>         0.1457
     45 H10         3.8925   -4.6377   -0.1951 H         1 <0>         0.1430
     46 H11         7.9473   -6.8420    0.5328 H         1 <0>         0.1106
     47 H12         7.9379   -6.7338   -1.2439 H         1 <0>         0.1106
     48 H13        10.5857   -6.3428   -0.3424 H         1 <0>         0.4122
     49 H14        11.9764   -8.4112   -1.3673 H         1 <0>         0.1030
     50 H15        11.9858   -8.5193    0.4093 H         1 <0>         0.1092
     51 H16        10.9069  -10.7481    0.2794 H         1 <0>         0.1176
     52 H17        10.8975  -10.6400   -1.4973 H         1 <0>         0.1116
     53 H18        16.2276  -10.7914   -3.1719 H         1 <0>         0.1028
     54 H19        16.1102  -12.5581   -3.0195 H         1 <0>         0.1277
     55 H20        13.8918   -9.3993   -4.1420 H         1 <0>         0.0957
     56 H21        12.6652  -10.2268   -5.1397 H         1 <0>         0.1260
     57 H22        11.9034  -11.5192   -3.2550 H         1 <0>         0.1176
     58 H23        11.9304   -9.8174   -2.7733 H         1 <0>         0.1053
@<TRIPOS>BOND
     1    1    6 ar
     2    1    2 ar
     3    1   37 1
     4    2    3 ar
     5    2   38 1
     6    3    4 ar
     7    3   39 1
     8    4    5 ar
     9    4    7 1
    10    5    6 ar
    11    5   40 1
    12    6   41 1
    13    7    8 2
    14    7    9 1
    15    9   10 1
    16   10   15 ar
    17   10   11 ar
    18   11   12 ar
    19   11   42 1
    20   12   13 ar
    21   12   43 1
    22   13   14 ar
    23   13   16 1
    24   14   15 ar
    25   14   44 1
    26   15   45 1
    27   16   17 2
    28   16   18 1
    29   18   19 1
    30   18   46 1
    31   18   47 1
    32   19   20 am
    33   19   48 1
    34   20   21 2
    35   20   22 1
    36   22   23 1
    37   22   49 1
    38   22   50 1
    39   23   24 1
    40   23   51 1
    41   23   52 1
    42   24   31 am
    43   24   25 1
    44   25   36 1
    45   25   26 2
    46   26   27 1
    47   26   33 1
    48   27   28 2
    49   27   29 am
    50   29   30 1
    51   29   31 am
    52   31   32 2
    53   33   34 1
    54   33   53 1
    55   33   54 1
    56   34   35 1
    57   35   36 1
    58   35   55 1
    59   35   56 1
    60   36   57 1
    61   36   58 1
@<TRIPOS>MOLECULE
CHEMBL494929
   56    60     0     0     0
SMALL
USER_CHARGES

@<TRIPOS>ATOM
      1 C1          2.7877    1.3650    6.8195 C.ar      1 <0>        -0.1787
      2 C2          3.6387    2.0785    5.9955 C.ar      1 <0>        -0.0704
      3 C3          4.5087    1.4117    5.1553 C.ar      1 <0>        -0.1990
      4 C4          4.5282    0.0229    5.1385 C.ar      1 <0>         0.2178
      5 C5          3.6720   -0.6907    5.9676 C.ar      1 <0>        -0.2000
      6 C6          2.8045   -0.0177    6.8053 C.ar      1 <0>        -0.0710
      7 N1          5.4065   -0.6546    4.2897 N.pl3     1 <0>        -0.6302
      8 C7          5.5252   -2.1182    4.3499 C.3       1 <0>         0.1067
      9 C8          5.2632   -2.6892    2.9508 C.3       1 <0>         0.0857
     10 N2          6.0847   -1.9512    1.9811 N.am      1 <0>        -0.6059
     11 C9          5.9660   -0.4876    1.9208 C.3       1 <0>         0.0969
     12 C10         6.2239    0.0828    3.3161 C.3       1 <0>         0.1079
     13 C11         6.9322   -2.6050    1.1620 C.2       1 <0>         0.5649
     14 O1          7.6786   -1.9792    0.4345 O.2       1 <0>        -0.5185
     15 C12         6.9541   -4.0817    1.1481 C.ar      1 <0>        -0.1634
     16 C13         5.7615   -4.8003    1.0396 C.ar      1 <0>        -0.0469
     17 C14         5.7889   -6.1785    1.0269 C.ar      1 <0>        -0.0916
     18 C15         6.9947   -6.8524    1.1217 C.ar      1 <0>        -0.0504
     19 C16         8.1802   -6.1504    1.2299 C.ar      1 <0>        -0.1535
     20 C17         8.1695   -4.7672    1.2378 C.ar      1 <0>         0.1513
     21 F1          9.3289   -4.0810    1.3380 F         1 <0>        -0.1234
     22 C18         4.5022   -6.9542    0.9098 C.3       1 <0>        -0.0164
     23 C19         4.1927   -7.1972   -0.5449 C.2       1 <0>         0.1359
     24 C20         2.9840   -7.9295   -0.9231 C.ar      1 <0>        -0.0604
     25 C21         2.0905   -8.4197    0.0312 C.ar      1 <0>        -0.0978
     26 C22         0.9742   -9.0977   -0.3723 C.ar      1 <0>        -0.0871
     27 C23         0.7150   -9.3073   -1.7206 C.ar      1 <0>        -0.1101
     28 C24         1.5789   -8.8355   -2.6845 C.ar      1 <0>        -0.0543
     29 C25         2.7235   -8.1403   -2.2965 C.ar      1 <0>        -0.1252
     30 C26         3.6822   -7.6118   -3.2746 C.2       1 <0>         0.5283
     31 O2          3.5003   -7.7681   -4.4688 O.2       1 <0>        -0.5194
     32 N3          4.7686   -6.9491   -2.8256 N.am      1 <0>        -0.5331
     33 H1          5.4057   -6.5976   -3.4670 H         1 <0>         0.4373
     34 N4          4.9970   -6.7517   -1.4636 N.2       1 <0>        -0.2206
     35 H2          2.1115    1.8889    7.4788 H         1 <0>         0.1180
     36 H3          3.6228    3.1583    6.0087 H         1 <0>         0.1208
     37 H4          5.1728    1.9695    4.5117 H         1 <0>         0.1218
     38 H5          3.6844   -1.7706    5.9568 H         1 <0>         0.1217
     39 H6          2.1385   -0.5718    7.4501 H         1 <0>         0.1207
     40 H7          6.5296   -2.3907    4.6741 H         1 <0>         0.0682
     41 H8          4.7914   -2.5162    5.0508 H         1 <0>         0.0985
     42 H9          5.5329   -3.7451    2.9302 H         1 <0>         0.1006
     43 H10         4.2088   -2.5734    2.7000 H         1 <0>         0.0778
     44 H11         6.6998   -0.0896    1.2200 H         1 <0>         0.1055
     45 H12         4.9616   -0.2151    1.5967 H         1 <0>         0.0751
     46 H13         5.9514    1.1380    3.3344 H         1 <0>         0.0975
     47 H14         7.2792   -0.0294    3.5649 H         1 <0>         0.0684
     48 H15         4.8195   -4.2772    0.9662 H         1 <0>         0.1360
     49 H16         7.0088   -7.9323    1.1114 H         1 <0>         0.1383
     50 H17         9.1170   -6.6826    1.3042 H         1 <0>         0.1446
     51 H18         4.6060   -7.9098    1.4238 H         1 <0>         0.1118
     52 H19         3.6916   -6.3838    1.3633 H         1 <0>         0.1090
     53 H20         2.2805   -8.2643    1.0829 H         1 <0>         0.1421
     54 H21         0.2845   -9.4760    0.3677 H         1 <0>         0.1369
     55 H22        -0.1730   -9.8461   -2.0166 H         1 <0>         0.1377
     56 H23         1.3715   -9.0027   -3.7312 H         1 <0>         0.1436
@<TRIPOS>BOND
     1    1    6 ar
     2    1    2 ar
     3    1   35 1
     4    2    3 ar
     5    2   36 1
     6    3    4 ar
     7    3   37 1
     8    4    5 ar
     9    4    7 1
    10    5    6 ar
    11    5   38 1
    12    6   39 1
    13    7   12 1
    14    7    8 1
    15    8    9 1
    16    8   40 1
    17    8   41 1
    18    9   10 1
    19    9   42 1
    20    9   43 1
    21   10   11 1
    22   10   13 am
    23   11   12 1
    24   11   44 1
    25   11   45 1
    26   12   46 1
    27   12   47 1
    28   13   14 2
    29   13   15 1
    30   15   20 ar
    31   15   16 ar
    32   16   17 ar
    33   16   48 1
    34   17   18 ar
    35   17   22 1
    36   18   19 ar
    37   18   49 1
    38   19   20 ar
    39   19   50 1
    40   20   21 1
    41   22   23 1
    42   22   51 1
    43   22   52 1
    44   23   34 2
    45   23   24 1
    46   24   29 ar
    47   24   25 ar
    48   25   26 ar
    49   25   53 1
    50   26   27 ar
    51   26   54 1
    52   27   28 ar
    53   27   55 1
    54   28   29 ar
    55   28   56 1
    56   29   30 1
    57   30   31 2
    58   30   32 am
    59   32   33 1
    60   32   34 1
@<TRIPOS>MOLECULE
CHEMBL609002
   42    45     0     0     0
SMALL
USER_CHARGES

@<TRIPOS>ATOM
      1 C1         -0.0166    1.3760    0.0096 C.ar      1 <0>        -0.1210
      2 C2          1.1662    2.0868    0.0021 C.ar      1 <0>        -0.0937
      3 C3          2.3967    1.4340   -0.0291 C.ar      1 <0>        -0.0751
      4 C4          2.4201    0.0605   -0.0499 C.ar      1 <0>        -0.0663
      5 C5          1.2266   -0.6678   -0.0130 C.ar      1 <0>        -0.1261
      6 C6          0.0021   -0.0041    0.0020 C.ar      1 <0>        -0.0567
      7 C7          1.2842   -2.1436    0.0500 C.2       1 <0>         0.5600
      8 O1          0.2876   -2.8040   -0.1694 O.2       1 <0>        -0.5337
      9 N1          2.4471   -2.7525    0.3513 N.am      1 <0>        -0.7271
     10 C8          3.6229   -1.9689    0.7327 C.3       1 <0>         0.1234
     11 C9          3.7168   -0.7072   -0.1204 C.3       1 <0>         0.1695
     12 N2          4.7906    0.1591    0.3818 N.am      1 <0>        -0.6057
     13 C10         4.9172    1.4937   -0.2120 C.3       1 <0>         0.1074
     14 C11         3.6334    2.2836   -0.0343 C.3       1 <0>        -0.0977
     15 C12         5.6281   -0.2566    1.3525 C.2       1 <0>         0.5233
     16 O2          5.5025   -1.3652    1.8280 O.2       1 <0>        -0.5302
     17 C13         6.7206    0.6560    1.8469 C.3       1 <0>        -0.1311
     18 C14         7.5216   -0.0533    2.9406 C.3       1 <0>        -0.0504
     19 C15         8.6142    0.8593    3.4350 C.ar      1 <0>         0.0793
     20 C16         8.7157    1.1494    4.7844 C.ar      1 <0>         0.0556
     21 N3          9.6739    1.9491    5.2179 N.ar      1 <0>        -0.4351
     22 C17        10.5353    2.4721    4.3629 C.ar      1 <0>         0.0442
     23 C18        10.4339    2.1821    3.0140 C.ar      1 <0>         0.0554
     24 N4          9.4785    1.3782    2.5810 N.ar      1 <0>        -0.4371
     25 H1         -0.9601    1.9013    0.0260 H         1 <0>         0.1340
     26 H2          1.1376    3.1663    0.0204 H         1 <0>         0.1296
     27 H3         -0.9221   -0.5629    0.0080 H         1 <0>         0.1400
     28 H4          2.5058   -3.7200    0.3155 H         1 <0>         0.4096
     29 H5          3.5450   -1.6893    1.7833 H         1 <0>         0.0868
     30 H6          4.5201   -2.5705    0.5874 H         1 <0>         0.1106
     31 H7          3.9215   -0.9818   -1.1552 H         1 <0>         0.0965
     32 H8          5.7361    2.0259    0.2720 H         1 <0>         0.0979
     33 H9          5.1334    1.3944   -1.2758 H         1 <0>         0.0791
     34 H10         3.5550    3.0075   -0.8454 H         1 <0>         0.0936
     35 H11         3.6865    2.8268    0.9092 H         1 <0>         0.0842
     36 H12         7.3827    0.9116    1.0196 H         1 <0>         0.1081
     37 H13         6.2782    1.5658    2.2527 H         1 <0>         0.0950
     38 H14         6.8596   -0.3090    3.7679 H         1 <0>         0.0939
     39 H15         7.9641   -0.9631    2.5348 H         1 <0>         0.0973
     40 H16         8.0115    0.7223    5.4830 H         1 <0>         0.1701
     41 H17        11.3183    3.1261    4.7173 H         1 <0>         0.1710
     42 H18        11.1379    2.6095    2.3154 H         1 <0>         0.1719
@<TRIPOS>BOND
     1    1    6 ar
     2    1    2 ar
     3    1   25 1
     4    2    3 ar
     5    2   26 1
     6    3   14 1
     7    3    4 ar
     8    4   11 1
     9    4    5 ar
    10    5    6 ar
    11    5    7 1
    12    6   27 1
    13    7    8 2
    14    7    9 am
    15    9   10 1
    16    9   28 1
    17   10   11 1
    18   10   29 1
    19   10   30 1
    20   11   12 1
    21   11   31 1
    22   12   13 1
    23   12   15 am
    24   13   14 1
    25   13   32 1
    26   13   33 1
    27   14   34 1
    28   14   35 1
    29   15   16 2
    30   15   17 1
    31   17   18 1
    32   17   36 1
    33   17   37 1
    34   18   19 1
    35   18   38 1
    36   18   39 1
    37   19   24 ar
    38   19   20 ar
    39   20   21 ar
    40   20   40 1
    41   21   22 ar
    42   22   23 ar
    43   22   41 1
    44   23   24 ar
    45   23   42 1
@<TRIPOS>MOLECULE
CHEMBL609002__1
   42    45     0     0     0
SMALL
USER_CHARGES

@<TRIPOS>ATOM
      1 C1         -0.0166    1.3760    0.0096 C.ar      1 <0>        -0.1210
      2 C2          1.1662    2.0868    0.0021 C.ar      1 <0>        -0.0935
      3 C3          2.3970    1.4338    0.0028 C.ar      1 <0>        -0.0746
      4 C4          2.4207    0.0601    0.0084 C.ar      1 <0>        -0.0667
      5 C5          1.2266   -0.6678   -0.0135 C.ar      1 <0>        -0.1262
      6 C6          0.0021   -0.0041    0.0020 C.ar      1 <0>        -0.0569
      7 C7          1.2829   -2.1428   -0.0935 C.2       1 <0>         0.5601
      8 O1          0.2903   -2.8056    0.1369 O.2       1 <0>        -0.5339
      9 N1          2.4397   -2.7483   -0.4236 N.am      1 <0>        -0.7272
     10 C8          3.6080   -1.9605   -0.8189 C.3       1 <0>         0.1233
     11 C9          3.7184   -0.7081    0.0458 C.3       1 <0>         0.1696
     12 N2          4.7825    0.1637   -0.4675 N.am      1 <0>        -0.6058
     13 C10         4.9205    1.4919    0.1382 C.3       1 <0>         0.1076
     14 C11         3.6336    2.2834   -0.0064 C.3       1 <0>        -0.0979
     15 C12         5.6018   -0.2418   -1.4578 C.2       1 <0>         0.5232
     16 O2          5.4675   -1.3456   -1.9422 O.2       1 <0>        -0.5302
     17 C13         6.6848    0.6762   -1.9632 C.3       1 <0>        -0.1312
     18 C14         7.4653   -0.0216   -3.0788 C.3       1 <0>        -0.0504
     19 C15         8.5483    0.8964   -3.5842 C.ar      1 <0>         0.0793
     20 C16         9.8640    0.4678   -3.6069 C.ar      1 <0>         0.0558
     21 N3         10.8134    1.2725   -4.0504 N.ar      1 <0>        -0.4351
     22 C17        10.5066    2.4867   -4.4724 C.ar      1 <0>         0.0443
     23 C18         9.1914    2.9152   -4.4498 C.ar      1 <0>         0.0553
     24 N4          8.2410    2.1085   -4.0108 N.ar      1 <0>        -0.4372
     25 H1         -0.9601    1.9013    0.0260 H         1 <0>         0.1340
     26 H2          1.1374    3.1664   -0.0047 H         1 <0>         0.1297
     27 H3         -0.9221   -0.5629    0.0077 H         1 <0>         0.1400
     28 H4          2.4992   -3.7162   -0.3987 H         1 <0>         0.4096
     29 H5          4.5079   -2.5635   -0.6972 H         1 <0>         0.1106
     30 H6          3.5101   -1.6696   -1.8647 H         1 <0>         0.0869
     31 H7          3.9428   -0.9938    1.0735 H         1 <0>         0.0963
     32 H8          5.1571    1.3811    1.1964 H         1 <0>         0.0784
     33 H9          5.7301    2.0293   -0.3557 H         1 <0>         0.0978
     34 H10         3.6688    2.8368   -0.9449 H         1 <0>         0.0855
     35 H11         3.5708    2.9985    0.8138 H         1 <0>         0.0934
     36 H12         6.2347    1.5899   -2.3513 H         1 <0>         0.1072
     37 H13         7.3621    0.9236   -1.1458 H         1 <0>         0.0959
     38 H14         7.9154   -0.9353   -2.6907 H         1 <0>         0.0945
     39 H15         6.7880   -0.2690   -3.8962 H         1 <0>         0.0966
     40 H16        10.1147   -0.5244   -3.2617 H         1 <0>         0.1703
     41 H17        11.2827    3.1447   -4.8346 H         1 <0>         0.1710
     42 H18         8.9407    3.9075   -4.7946 H         1 <0>         0.1717
@<TRIPOS>BOND
     1    1    6 ar
     2    1    2 ar
     3    1   25 1
     4    2    3 ar
     5    2   26 1
     6    3   14 1
     7    3    4 ar
     8    4   11 1
     9    4    5 ar
    10    5    6 ar
    11    5    7 1
    12    6   27 1
    13    7    8 2
    14    7    9 am
    15    9   10 1
    16    9   28 1
    17   10   11 1
    18   10   29 1
    19   10   30 1
    20   11   12 1
    21   11   31 1
    22   12   13 1
    23   12   15 am
    24   13   14 1
    25   13   32 1
    26   13   33 1
    27   14   34 1
    28   14   35 1
    29   15   16 2
    30   15   17 1
    31   17   18 1
    32   17   36 1
    33   17   37 1
    34   18   19 1
    35   18   38 1
    36   18   39 1
    37   19   24 ar
    38   19   20 ar
    39   20   21 ar
    40   20   40 1
    41   21   22 ar
    42   22   23 ar
    43   22   41 1
    44   23   24 ar
    45   23   42 1
@<TRIPOS>MOLECULE
CHEMBL460267
   30    32     0     0     0
SMALL
USER_CHARGES

@<TRIPOS>ATOM
      1 C1         -0.0167    1.3769    0.0096 C.ar      1 <0>        -0.1107
      2 C2          1.1632    2.0980    0.0022 C.ar      1 <0>        -0.0852
      3 C3          2.3901    1.4397   -0.0135 C.ar      1 <0>        -0.0880
      4 C4          2.4203    0.0291   -0.0214 C.ar      1 <0>         0.1037
      5 C5          1.2109   -0.6850   -0.0132 C.ar      1 <0>         0.0380
      6 C6          0.0021   -0.0041    0.0020 C.ar      1 <0>        -0.0789
      7 N1          1.5594   -2.0218   -0.0239 N.pl3     1 <0>        -0.5916
      8 H1          0.9495   -2.7761   -0.0221 H         1 <0>         0.4231
      9 C7          2.9166   -2.0818   -0.0377 C.2       1 <0>         0.2750
     10 N2          3.4163   -0.8785   -0.0362 N.2       1 <0>        -0.4510
     11 C8          3.7253   -3.3533   -0.0521 C.3       1 <0>         0.2140
     12 H2          4.2919   -3.4499    0.8741 H         1 <0>         0.1212
     13 C9          4.6800   -3.3660   -1.2665 C.3       1 <0>        -0.1138
     14 C10         4.6757   -4.8625   -1.6554 C.3       1 <0>        -0.1575
     15 C11         3.3566   -5.3798   -1.1252 C.2       1 <0>         0.5258
     16 O1          2.8369   -6.4247   -1.4555 O.2       1 <0>        -0.5206
     17 N3          2.8445   -4.5134   -0.2320 N.am      1 <0>        -0.7384
     18 C12         3.6468    2.2101   -0.0224 C.2       1 <0>         0.5576
     19 O2          4.7155    1.6299   -0.0361 O.2       1 <0>        -0.5105
     20 N4          3.6115    3.5573   -0.0152 N.am      1 <0>        -0.8548
     21 H3         -0.9621    1.8987    0.0260 H         1 <0>         0.1408
     22 H4          1.1329    3.1775    0.0083 H         1 <0>         0.1364
     23 H5         -0.9266   -0.5554    0.0083 H         1 <0>         0.1304
     24 H6          4.2883   -2.7512   -2.0770 H         1 <0>         0.0895
     25 H7          5.6799   -3.0402   -0.9800 H         1 <0>         0.1092
     26 H8          4.7220   -4.9754   -2.7386 H         1 <0>         0.1100
     27 H9          5.5079   -5.3824   -1.1808 H         1 <0>         0.1141
     28 H10         2.0021   -4.6382    0.2323 H         1 <0>         0.4079
     29 H11         2.7590    4.0201   -0.0042 H         1 <0>         0.3987
     30 H12         4.4385    4.0642   -0.0210 H         1 <0>         0.4060
@<TRIPOS>BOND
     1    1    6 ar
     2    1    2 ar
     3    1   21 1
     4    2    3 ar
     5    2   22 1
     6    3    4 ar
     7    3   18 1
     8    4   10 1
     9    4    5 ar
    10    5    6 ar
    11    5    7 1
    12    6   23 1
    13    7    8 1
    14    7    9 1
    15    9   10 2
    16    9   11 1
    17   11   12 1
    18   11   17 1
    19   11   13 1
    20   13   14 1
    21   13   24 1
    22   13   25 1
    23   14   15 1
    24   14   26 1
    25   14   27 1
    26   15   16 2
    27   15   17 am
    28   17   28 1
    29   18   19 2
    30   18   20 am
    31   20   29 1
    32   20   30 1
@<TRIPOS>MOLECULE
CHEMBL596354
   47    51     0     0     0
SMALL
USER_CHARGES

@<TRIPOS>ATOM
      1 C1         -0.0164    1.3618    0.0095 C.ar      1 <0>        -0.1279
      2 C2          1.1675    2.0858    0.0021 C.ar      1 <0>        -0.0993
      3 C3          2.3834    1.4366   -0.0135 C.ar      1 <0>        -0.1127
      4 C4          2.4219    0.0488   -0.0213 C.ar      1 <0>         0.0468
      5 C5          1.2229   -0.6838   -0.0133 C.ar      1 <0>         0.0439
      6 C6          0.0021   -0.0041    0.0020 C.ar      1 <0>        -0.0627
      7 N1          1.5627   -1.9984   -0.0238 N.2       1 <0>        -0.4937
      8 C7          2.8584   -2.1152   -0.0373 C.2       1 <0>         0.2611
      9 N2          3.4388   -0.8848   -0.0364 N.pl3     1 <0>        -0.4947
     10 C8          4.8763   -0.6028   -0.0496 C.3       1 <0>         0.1286
     11 C9          5.3672   -0.3886    1.3836 C.3       1 <0>        -0.1591
     12 C10         6.8459   -0.0985    1.3700 C.2       1 <0>         0.5282
     13 O1          7.4479   -0.0662    0.3176 O.2       1 <0>        -0.5291
     14 N3          7.4994    0.1251    2.5273 N.am      1 <0>        -0.6030
     15 C11         6.8006    0.0869    3.8158 C.3       1 <0>         0.1066
     16 C12         6.9484    1.4085    4.5470 C.3       1 <0>        -0.0977
     17 C13         8.2403    2.1167    4.2639 C.ar      1 <0>        -0.0753
     18 C14         8.5241    3.2625    5.0050 C.ar      1 <0>        -0.0926
     19 C15         9.6915    3.9694    4.8028 C.ar      1 <0>        -0.1200
     20 C16        10.5979    3.5554    3.8471 C.ar      1 <0>        -0.0556
     21 C17        10.3212    2.4187    3.0935 C.ar      1 <0>        -0.1246
     22 C18         9.1500    1.6887    3.3282 C.ar      1 <0>        -0.0676
     23 C19         8.9396    0.4103    2.5466 C.3       1 <0>         0.1702
     24 C20         9.4591    0.5765    1.1216 C.3       1 <0>         0.1241
     25 N4         10.8510    1.0294    1.1412 N.am      1 <0>        -0.7313
     26 C21        11.2550    1.9581    2.0443 C.2       1 <0>         0.5601
     27 O2         12.3865    2.3999    1.9971 O.2       1 <0>        -0.5296
     28 H1         -0.9620    1.8835    0.0259 H         1 <0>         0.1301
     29 H2          1.1359    3.1654    0.0082 H         1 <0>         0.1302
     30 H3          3.3018    2.0048   -0.0199 H         1 <0>         0.1202
     31 H4         -0.9252   -0.5577    0.0076 H         1 <0>         0.1294
     32 H5          3.3951   -3.0524   -0.0473 H         1 <0>         0.2138
     33 H6          5.4076   -1.4446   -0.4937 H         1 <0>         0.1073
     34 H7          5.0648    0.2962   -0.6364 H         1 <0>         0.0991
     35 H8          4.8358    0.4532    1.8276 H         1 <0>         0.1037
     36 H9          5.1787   -1.2876    1.9704 H         1 <0>         0.1061
     37 H10         5.7427   -0.1121    3.6445 H         1 <0>         0.0965
     38 H11         7.2205   -0.7110    4.4283 H         1 <0>         0.0808
     39 H12         6.1238    2.0602    4.2578 H         1 <0>         0.0849
     40 H13         6.8812    1.2225    5.6189 H         1 <0>         0.0947
     41 H14         7.8193    3.6020    5.7495 H         1 <0>         0.1303
     42 H15         9.8972    4.8493    5.3943 H         1 <0>         0.1349
     43 H16        11.5116    4.1080    3.6858 H         1 <0>         0.1405
     44 H17         9.4665   -0.4094    3.0351 H         1 <0>         0.0985
     45 H18         9.3975   -0.3791    0.6009 H         1 <0>         0.1097
     46 H19         8.8476    1.3110    0.5975 H         1 <0>         0.0858
     47 H20        11.4827    0.6689    0.4994 H         1 <0>         0.4103
@<TRIPOS>BOND
     1    1    6 ar
     2    1    2 ar
     3    1   28 1
     4    2    3 ar
     5    2   29 1
     6    3    4 ar
     7    3   30 1
     8    4    9 1
     9    4    5 ar
    10    5    6 ar
    11    5    7 1
    12    6   31 1
    13    7    8 2
    14    8    9 1
    15    8   32 1
    16    9   10 1
    17   10   11 1
    18   10   33 1
    19   10   34 1
    20   11   12 1
    21   11   35 1
    22   11   36 1
    23   12   13 2
    24   12   14 am
    25   14   23 1
    26   14   15 1
    27   15   16 1
    28   15   37 1
    29   15   38 1
    30   16   17 1
    31   16   39 1
    32   16   40 1
    33   17   22 ar
    34   17   18 ar
    35   18   19 ar
    36   18   41 1
    37   19   20 ar
    38   19   42 1
    39   20   21 ar
    40   20   43 1
    41   21   26 1
    42   21   22 ar
    43   22   23 1
    44   23   24 1
    45   23   44 1
    46   24   25 1
    47   24   45 1
    48   24   46 1
    49   25   26 am
    50   25   47 1
    51   26   27 2
@<TRIPOS>MOLECULE
CHEMBL596354__1
   47    51     0     0     0
SMALL
USER_CHARGES

@<TRIPOS>ATOM
      1 C1         -0.0164    1.3618    0.0095 C.ar      1 <0>        -0.1280
      2 C2          1.1675    2.0858    0.0021 C.ar      1 <0>        -0.0992
      3 C3          2.3834    1.4366   -0.0135 C.ar      1 <0>        -0.1127
      4 C4          2.4219    0.0488   -0.0213 C.ar      1 <0>         0.0467
      5 C5          1.2229   -0.6838   -0.0133 C.ar      1 <0>         0.0437
      6 C6          0.0021   -0.0041    0.0020 C.ar      1 <0>        -0.0626
      7 N1          1.5627   -1.9984   -0.0238 N.2       1 <0>        -0.4936
      8 C7          2.8584   -2.1152   -0.0373 C.2       1 <0>         0.2611
      9 N2          3.4388   -0.8848   -0.0364 N.pl3     1 <0>        -0.4946
     10 C8          4.8763   -0.6028   -0.0496 C.3       1 <0>         0.1286
     11 C9          5.3672   -0.3886    1.3836 C.3       1 <0>        -0.1590
     12 C10         6.8459   -0.0985    1.3700 C.2       1 <0>         0.5283
     13 O1          7.4479   -0.0662    0.3176 O.2       1 <0>        -0.5292
     14 N3          7.4994    0.1251    2.5273 N.am      1 <0>        -0.6023
     15 C11         6.8006    0.0869    3.8158 C.3       1 <0>         0.1065
     16 C12         7.4229   -0.9484    4.7345 C.3       1 <0>        -0.0977
     17 C13         8.8959   -1.1391    4.5229 C.ar      1 <0>        -0.0754
     18 C14         9.5758   -1.9605    5.4205 C.ar      1 <0>        -0.0933
     19 C15        10.9309   -2.1858    5.2924 C.ar      1 <0>        -0.1197
     20 C16        11.6370   -1.6054    4.2576 C.ar      1 <0>        -0.0557
     21 C17        10.9676   -0.7915    3.3489 C.ar      1 <0>        -0.1264
     22 C18         9.5992   -0.5418    3.5056 C.ar      1 <0>        -0.0691
     23 C19         8.9396    0.4103    2.5466 C.3       1 <0>         0.1697
     24 C20         9.5272    0.2307    1.1499 C.3       1 <0>         0.1233
     25 N4         10.9858    0.3447    1.1974 N.am      1 <0>        -0.7230
     26 C21        11.6840   -0.1724    2.2138 C.2       1 <0>         0.5598
     27 O2         12.8992   -0.1465    2.1997 O.2       1 <0>        -0.5348
     28 H1         -0.9620    1.8835    0.0259 H         1 <0>         0.1301
     29 H2          1.1359    3.1654    0.0082 H         1 <0>         0.1303
     30 H3          3.3018    2.0048   -0.0199 H         1 <0>         0.1206
     31 H4         -0.9252   -0.5577    0.0076 H         1 <0>         0.1294
     32 H5          3.3951   -3.0524   -0.0473 H         1 <0>         0.2134
     33 H6          5.4076   -1.4446   -0.4937 H         1 <0>         0.1066
     34 H7          5.0648    0.2962   -0.6364 H         1 <0>         0.0998
     35 H8          4.8358    0.4532    1.8276 H         1 <0>         0.1048
     36 H9          5.1787   -1.2876    1.9704 H         1 <0>         0.1053
     37 H10         6.8623    1.0680    4.2867 H         1 <0>         0.0807
     38 H11         5.7533   -0.1649    3.6487 H         1 <0>         0.0966
     39 H12         7.2566   -0.6419    5.7672 H         1 <0>         0.0948
     40 H13         6.9218   -1.9028    4.5730 H         1 <0>         0.0850
     41 H14         9.0334   -2.4277    6.2292 H         1 <0>         0.1302
     42 H15        11.4411   -2.8178    6.0042 H         1 <0>         0.1347
     43 H16        12.6977   -1.7810    4.1547 H         1 <0>         0.1404
     44 H17         9.1035    1.4338    2.8838 H         1 <0>         0.0978
     45 H18         9.2540   -0.7525    0.7668 H         1 <0>         0.0880
     46 H19         9.1263    0.9982    0.4879 H         1 <0>         0.1102
     47 H20        11.4547    0.8105    0.4874 H         1 <0>         0.4098
@<TRIPOS>BOND
     1    1    6 ar
     2    1    2 ar
     3    1   28 1
     4    2    3 ar
     5    2   29 1
     6    3    4 ar
     7    3   30 1
     8    4    9 1
     9    4    5 ar
    10    5    6 ar
    11    5    7 1
    12    6   31 1
    13    7    8 2
    14    8    9 1
    15    8   32 1
    16    9   10 1
    17   10   11 1
    18   10   33 1
    19   10   34 1
    20   11   12 1
    21   11   35 1
    22   11   36 1
    23   12   13 2
    24   12   14 am
    25   14   23 1
    26   14   15 1
    27   15   16 1
    28   15   37 1
    29   15   38 1
    30   16   17 1
    31   16   39 1
    32   16   40 1
    33   17   22 ar
    34   17   18 ar
    35   18   19 ar
    36   18   41 1
    37   19   20 ar
    38   19   42 1
    39   20   21 ar
    40   20   43 1
    41   21   26 1
    42   21   22 ar
    43   22   23 1
    44   23   24 1
    45   23   44 1
    46   24   25 1
    47   24   45 1
    48   24   46 1
    49   25   26 am
    50   25   47 1
    51   26   27 2
@<TRIPOS>MOLECULE
CHEMBL383442
   35    39     0     0     0
SMALL
USER_CHARGES

@<TRIPOS>ATOM
      1 C1         -0.0169    1.3960    0.0097 C.ar      1 <0>        -0.0364
      2 C2          1.1484    2.1056    0.0024 C.ar      1 <0>        -0.1349
      3 C3          2.3756    1.4451   -0.0127 C.ar      1 <0>         0.1663
      4 C4          2.4057    0.0404   -0.0212 C.ar      1 <0>        -0.1017
      5 C5          1.2202   -0.6824   -0.0139 C.ar      1 <0>        -0.0070
      6 C6          0.0021   -0.0041    0.0020 C.ar      1 <0>        -0.0559
      7 C7         -1.2275   -0.7380    0.0100 C.1       1 <0>         0.2551
      8 N1         -2.2029   -1.3203    0.0163 N.1       1 <0>        -0.4152
      9 C8          3.8300   -0.3454   -0.0379 C.ar      1 <0>        -0.0873
     10 C9          4.4938   -1.5602   -0.0529 C.ar      1 <0>        -0.0206
     11 C10         5.8866   -1.5920   -0.0662 C.ar      1 <0>        -0.1739
     12 C11         6.6134   -0.3895   -0.0644 C.ar      1 <0>         0.0161
     13 C12         5.9619    0.8087   -0.0502 C.ar      1 <0>        -0.1279
     14 C13         4.5645    0.8520   -0.0368 C.ar      1 <0>         0.1887
     15 N2          3.6766    1.9078   -0.0219 N.pl3     1 <0>        -0.6023
     16 H1          3.9307    2.8440   -0.0188 H         1 <0>         0.4245
     17 C14         6.9647    1.9443   -0.0515 C.3       1 <0>        -0.0772
     18 C15         8.3021    1.3000    0.3711 C.3       1 <0>        -0.1201
     19 C16         8.1116   -0.1647   -0.0769 C.3       1 <0>        -0.0877
     20 C17         6.3174   -3.0012   -0.0807 C.2       1 <0>         0.5646
     21 O1          7.4748   -3.3735   -0.0938 O.2       1 <0>        -0.5240
     22 N3          5.2487   -3.8164   -0.0767 N.am      1 <0>        -0.7253
     23 C18         4.0321   -2.9960   -0.0590 C.3       1 <0>         0.1388
     24 H2         -0.9619    1.9185    0.0261 H         1 <0>         0.1415
     25 H3          1.1197    3.1853    0.0080 H         1 <0>         0.1381
     26 H4          1.2415   -1.7622   -0.0200 H         1 <0>         0.1375
     27 H5          7.0499    2.3728   -1.0501 H         1 <0>         0.0826
     28 H6          6.6701    2.7101    0.6660 H         1 <0>         0.0743
     29 H7          9.1389    1.7614   -0.1532 H         1 <0>         0.0828
     30 H8          8.4396    1.3618    1.4506 H         1 <0>         0.0764
     31 H9          8.6017   -0.8414    0.6231 H         1 <0>         0.0884
     32 H10         8.5073   -0.3074   -1.0824 H         1 <0>         0.0905
     33 H11         5.2769   -4.7860   -0.0843 H         1 <0>         0.4271
     34 H12         3.4510   -3.2066    0.8388 H         1 <0>         0.1020
     35 H13         3.4337   -3.1936   -0.9484 H         1 <0>         0.1021
@<TRIPOS>BOND
     1    1    6 ar
     2    1    2 ar
     3    1   24 1
     4    2    3 ar
     5    2   25 1
     6    3   15 1
     7    3    4 ar
     8    4    5 ar
     9    4    9 1
    10    5    6 ar
    11    5   26 1
    12    6    7 1
    13    7    8 3
    14    9   14 ar
    15    9   10 ar
    16   10   23 1
    17   10   11 ar
    18   11   12 ar
    19   11   20 1
    20   12   19 1
    21   12   13 ar
    22   13   14 ar
    23   13   17 1
    24   14   15 1
    25   15   16 1
    26   17   18 1
    27   17   27 1
    28   17   28 1
    29   18   19 1
    30   18   29 1
    31   18   30 1
    32   19   31 1
    33   19   32 1
    34   20   21 2
    35   20   22 am
    36   22   23 1
    37   22   33 1
    38   23   34 1
    39   23   35 1
@<TRIPOS>MOLECULE
CHEMBL559043
   65    69     0     0     0
SMALL
USER_CHARGES

@<TRIPOS>ATOM
      1 C1          9.6210    1.1619    6.9720 C.ar      1 <0>        -0.0829
      2 C2          8.5822    2.0201    6.6634 C.ar      1 <0>        -0.1116
      3 C3          7.2967    1.5295    6.5304 C.ar      1 <0>        -0.0930
      4 C4          7.0501    0.1807    6.7055 C.ar      1 <0>        -0.1639
      5 C5          8.0891   -0.6777    7.0131 C.ar      1 <0>        -0.0993
      6 C6          9.3744   -0.1868    7.1475 C.ar      1 <0>        -0.1122
      7 C7          5.6486   -0.3540    6.5614 C.3       1 <0>         0.0365
      8 N1          5.4142   -0.7434    5.1645 N.4       1 <0>        -0.3630
      9 C8          3.9896   -1.0213    4.9962 C.3       1 <0>        -0.0076
     10 C9          3.5863   -0.7161    3.5706 C.3       1 <0>        -0.1570
     11 C10         3.6780   -2.0000    2.7261 C.3       1 <0>         0.1145
     12 N2          4.8703   -2.7916    3.0909 N.am      1 <0>        -0.6389
     13 C11         6.1567   -2.1796    3.3527 C.3       1 <0>         0.0934
     14 C12         6.2720   -1.8214    4.8524 C.3       1 <0>        -0.0580
     15 C13         4.7572   -4.1314    3.1839 C.2       1 <0>         0.6989
     16 O1          3.6702   -4.6602    3.0535 O.2       1 <0>        -0.5609
     17 N3          5.8491   -4.8850    3.4214 N.am      1 <0>        -0.7434
     18 C14         5.7465   -6.3463    3.4131 C.3       1 <0>         0.1339
     19 C15         7.1185   -6.9556    3.7085 C.3       1 <0>        -0.0544
     20 C16         7.0129   -8.4589    3.7000 C.2       1 <0>        -0.1742
     21 C17         7.2555   -9.2708    2.6596 C.2       1 <0>         0.0704
     22 N4          7.0560  -10.5739    3.0272 N.pl3     1 <0>        -0.5875
     23 H1          7.1699  -11.3403    2.4435 H         1 <0>         0.4228
     24 C18         6.6707  -10.6371    4.3446 C.ar      1 <0>         0.1250
     25 C19         6.6318   -9.3132    4.8283 C.ar      1 <0>        -0.1064
     26 C20         6.2750   -9.0702    6.1497 C.ar      1 <0>         0.0003
     27 C21         5.9603  -10.1417    6.9826 C.ar      1 <0>        -0.1618
     28 C22         6.0053  -11.4514    6.4934 C.ar      1 <0>        -0.0372
     29 C23         6.3495  -11.6931    5.1951 C.ar      1 <0>        -0.1352
     30 C24         5.5794   -9.8642    8.3826 C.2       1 <0>         0.5688
     31 O2          5.6111  -10.7492    9.2156 O.2       1 <0>        -0.5303
     32 N5          5.1968   -8.6181    8.7257 N.am      1 <0>        -0.7306
     33 C25         5.1005   -7.5557    7.7280 C.3       1 <0>         0.1168
     34 C26         6.2230   -7.6699    6.6991 C.3       1 <0>        -0.1046
     35 H2         10.6261    1.5445    7.0715 H         1 <0>         0.1364
     36 H3          8.7748    3.0740    6.5267 H         1 <0>         0.1367
     37 H4          6.4850    2.2001    6.2901 H         1 <0>         0.1317
     38 H5          7.8964   -1.7315    7.1502 H         1 <0>         0.1311
     39 H6         10.1861   -0.8574    7.3883 H         1 <0>         0.1367
     40 H7          5.5232   -1.2234    7.2069 H         1 <0>         0.1359
     41 H8          4.9341    0.4175    6.8484 H         1 <0>         0.1394
     42 H9          3.7957   -2.0719    5.2122 H         1 <0>         0.1326
     43 H10         3.4138   -0.3965    5.6790 H         1 <0>         0.1373
     44 H11         2.5623   -0.3428    3.5545 H         1 <0>         0.1269
     45 H12         4.2550    0.0391    3.1575 H         1 <0>         0.0884
     46 H13         2.7846   -2.6019    2.8921 H         1 <0>         0.1119
     47 H14         3.7361   -1.7311    1.6714 H         1 <0>         0.0848
     48 H15         6.9508   -2.8767    3.0850 H         1 <0>         0.1172
     49 H16         6.2551   -1.2733    2.7552 H         1 <0>         0.1049
     50 H17         7.3008   -1.5413    5.0787 H         1 <0>         0.1471
     51 H18         5.9958   -2.6882    5.4528 H         1 <0>         0.1298
     52 H19         6.7029   -4.4597    3.5979 H         1 <0>         0.3934
     53 H20         5.0357   -6.6650    4.1756 H         1 <0>         0.0751
     54 H21         5.4035   -6.6809    2.4341 H         1 <0>         0.0738
     55 H22         7.8293   -6.6370    2.9461 H         1 <0>         0.0795
     56 H23         7.4615   -6.6210    4.6875 H         1 <0>         0.0785
     57 H24         7.5624   -8.9442    1.6770 H         1 <0>         0.1740
     58 H25         5.7616  -12.2766    7.1463 H         1 <0>         0.1410
     59 H26         6.3834  -12.7082    4.8280 H         1 <0>         0.1310
     60 H27         4.9813   -8.4236    9.6512 H         1 <0>         0.4059
     61 H28         4.1394   -7.6283    7.2191 H         1 <0>         0.0668
     62 H29         5.1688   -6.5889    8.2267 H         1 <0>         0.0843
     63 H30         7.1748   -7.4318    7.1738 H         1 <0>         0.0876
     64 H31         6.0406   -6.9683    5.8851 H         1 <0>         0.0957
     65 H32         5.6559    0.0375    4.5730 H         1 <0>         0.4173
@<TRIPOS>BOND
     1    1    6 ar
     2    1    2 ar
     3    1   35 1
     4    2    3 ar
     5    2   36 1
     6    3    4 ar
     7    3   37 1
     8    4    5 ar
     9    4    7 1
    10    5    6 ar
    11    5   38 1
    12    6   39 1
    13    7    8 1
    14    7   40 1
    15    7   41 1
    16    8   14 1
    17    8    9 1
    18    8   65 1
    19    9   10 1
    20    9   42 1
    21    9   43 1
    22   10   11 1
    23   10   44 1
    24   10   45 1
    25   11   12 1
    26   11   46 1
    27   11   47 1
    28   12   13 1
    29   12   15 am
    30   13   14 1
    31   13   48 1
    32   13   49 1
    33   14   50 1
    34   14   51 1
    35   15   16 2
    36   15   17 am
    37   17   18 1
    38   17   52 1
    39   18   19 1
    40   18   53 1
    41   18   54 1
    42   19   20 1
    43   19   55 1
    44   19   56 1
    45   20   25 1
    46   20   21 2
    47   21   22 1
    48   21   57 1
    49   22   23 1
    50   22   24 1
    51   24   29 ar
    52   24   25 ar
    53   25   26 ar
    54   26   34 1
    55   26   27 ar
    56   27   28 ar
    57   27   30 1
    58   28   29 ar
    59   28   58 1
    60   29   59 1
    61   30   31 2
    62   30   32 am
    63   32   33 1
    64   32   60 1
    65   33   34 1
    66   33   61 1
    67   33   62 1
    68   34   63 1
    69   34   64 1
@<TRIPOS>MOLECULE
CHEMBL188989
   45    49     0     0     0
SMALL
USER_CHARGES

@<TRIPOS>ATOM
      1 C1          2.0811   -4.6080   -2.2821 C.2       1 <0>        -0.2008
      2 C2          0.6851   -4.5624   -2.0978 C.2       1 <0>        -0.2005
      3 C3          0.4219   -3.5398   -1.2591 C.2       1 <0>        -0.0157
      4 N1          1.6043   -2.9524   -0.9188 N.pl3     1 <0>        -0.4449
      5 C4          2.6179   -3.6115   -1.5490 C.2       1 <0>        -0.0142
      6 C5          1.7599   -1.8027   -0.0243 C.3       1 <0>         0.1452
      7 C6          1.9308   -2.2878    1.3922 C.ar      1 <0>        -0.1086
      8 C7          0.8195   -2.4760    2.1946 C.ar      1 <0>        -0.0920
      9 C8          0.9690   -2.9204    3.4921 C.ar      1 <0>        -0.1225
     10 C9          2.2446   -3.1801    3.9948 C.ar      1 <0>        -0.0193
     11 C10         3.3614   -2.9883    3.1803 C.ar      1 <0>        -0.0943
     12 C11         3.1978   -2.5486    1.8829 C.ar      1 <0>        -0.0912
     13 C12         2.4123   -3.6562    5.3849 C.2       1 <0>         0.1166
     14 C13         3.5491   -3.5516    6.1122 C.2       1 <0>        -0.1646
     15 C14         3.2702   -4.1476    7.4180 C.ar      1 <0>        -0.1169
     16 C15         4.0623   -4.4210    8.5371 C.ar      1 <0>        -0.0350
     17 C16         3.4951   -5.0032    9.6502 C.ar      1 <0>        -0.1565
     18 C17         2.1445   -5.2910    9.6811 C.ar      1 <0>        -0.0273
     19 C18         1.3265   -5.0192    8.5795 C.ar      1 <0>        -0.1483
     20 C19         1.9086   -4.5006    7.4126 C.ar      1 <0>         0.1392
     21 N2          1.4321   -4.2684    6.1376 N.pl3     1 <0>        -0.4771
     22 C20         0.1116   -4.6452    5.6807 C.3       1 <0>         0.0793
     23 C21        -0.4270   -5.8737    6.3659 C.3       1 <0>         0.0938
     24 N3         -0.9305   -5.6117    7.6937 N.am      1 <0>        -0.7185
     25 C22        -0.1144   -5.2575    8.6957 C.2       1 <0>         0.5616
     26 O1         -0.6193   -5.1071    9.7916 O.2       1 <0>        -0.5389
     27 H1          2.6224   -5.3142   -2.8943 H         1 <0>         0.1342
     28 H2         -0.0409   -5.2244   -2.5463 H         1 <0>         0.1339
     29 H3         -0.5568   -3.2381   -0.9160 H         1 <0>         0.1577
     30 H4          3.6692   -3.3762   -1.4739 H         1 <0>         0.1586
     31 H5          2.6379   -1.2285   -0.3200 H         1 <0>         0.0997
     32 H6          0.8742   -1.1706   -0.0875 H         1 <0>         0.0988
     33 H7         -0.1672   -2.2743    1.8044 H         1 <0>         0.1268
     34 H8          0.1007   -3.0665    4.1175 H         1 <0>         0.1276
     35 H9          4.3513   -3.1872    3.5636 H         1 <0>         0.1340
     36 H10         4.0610   -2.4036    1.2502 H         1 <0>         0.1295
     37 H11         4.4820   -3.1129    5.7901 H         1 <0>         0.1559
     38 H12         5.1144   -4.1774    8.5293 H         1 <0>         0.1326
     39 H13         4.1118   -5.2359   10.5057 H         1 <0>         0.1349
     40 H14         1.7142   -5.7324   10.5679 H         1 <0>         0.1374
     41 H15        -0.5715   -3.8155    5.8622 H         1 <0>         0.0801
     42 H16         0.1529   -4.8328    4.6078 H         1 <0>         0.1076
     43 H17        -1.2341   -6.2864    5.7607 H         1 <0>         0.1118
     44 H18         0.3699   -6.6143    6.4337 H         1 <0>         0.0796
     45 H19        -1.8808   -5.7039    7.8646 H         1 <0>         0.4105
@<TRIPOS>BOND
     1    1    5 2
     2    1    2 1
     3    1   27 1
     4    2    3 2
     5    2   28 1
     6    3    4 1
     7    3   29 1
     8    4    5 1
     9    4    6 1
    10    5   30 1
    11    6    7 1
    12    6   31 1
    13    6   32 1
    14    7   12 ar
    15    7    8 ar
    16    8    9 ar
    17    8   33 1
    18    9   10 ar
    19    9   34 1
    20   10   11 ar
    21   10   13 1
    22   11   12 ar
    23   11   35 1
    24   12   36 1
    25   13   21 1
    26   13   14 2
    27   14   15 1
    28   14   37 1
    29   15   20 ar
    30   15   16 ar
    31   16   17 ar
    32   16   38 1
    33   17   18 ar
    34   17   39 1
    35   18   19 ar
    36   18   40 1
    37   19   25 1
    38   19   20 ar
    39   20   21 1
    40   21   22 1
    41   22   23 1
    42   22   41 1
    43   22   42 1
    44   23   24 1
    45   23   43 1
    46   23   44 1
    47   24   25 am
    48   24   45 1
    49   25   26 2
@<TRIPOS>MOLECULE
CHEMBL596390
   44    47     0     0     0
SMALL
USER_CHARGES

@<TRIPOS>ATOM
      1 C1         -0.0167    1.3781    0.0096 C.ar      1 <0>        -0.1228
      2 C2          1.1709    2.0855    0.0021 C.ar      1 <0>        -0.1179
      3 C3          2.3773    1.4107   -0.0130 C.ar      1 <0>        -0.1164
      4 C4          2.3960    0.0285   -0.0201 C.ar      1 <0>        -0.0858
      5 C5          1.2084   -0.6789   -0.0117 C.ar      1 <0>        -0.1163
      6 C6          0.0021   -0.0041    0.0020 C.ar      1 <0>        -0.1179
      7 C7          3.7112   -0.7071   -0.0376 C.3       1 <0>        -0.0652
      8 C8          4.1714   -0.9633    1.3989 C.3       1 <0>        -0.1330
      9 C9          5.4865   -1.6989    1.3815 C.2       1 <0>         0.5210
     10 O1          6.0047   -1.9897    0.3242 O.2       1 <0>        -0.5294
     11 N1          6.0868   -2.0337    2.5408 N.am      1 <0>        -0.6072
     12 C10         5.4823   -1.7015    3.8347 C.3       1 <0>         0.1075
     13 C11         6.4223   -0.8454    4.6633 C.3       1 <0>        -0.0976
     14 C12         7.8751   -1.1238    4.4129 C.ar      1 <0>        -0.0752
     15 C13         8.8048   -0.4898    5.2354 C.ar      1 <0>        -0.0932
     16 C14        10.1588   -0.6943    5.0677 C.ar      1 <0>        -0.1212
     17 C15        10.6171   -1.5276    4.0668 C.ar      1 <0>        -0.0563
     18 C16         9.6992   -2.1583    3.2325 C.ar      1 <0>        -0.1252
     19 C17         8.3261   -1.9712    3.4308 C.ar      1 <0>        -0.0661
     20 C18         7.3682   -2.7504    2.5564 C.3       1 <0>         0.1695
     21 C19         7.9236   -2.8599    1.1395 C.3       1 <0>         0.1241
     22 N2          9.2765   -3.4181    1.1693 N.am      1 <0>        -0.7313
     23 C20        10.1517   -3.0382    2.1343 C.2       1 <0>         0.5602
     24 O2         11.3013   -3.4316    2.1013 O.2       1 <0>        -0.5313
     25 H1         -0.9591    1.9053    0.0259 H         1 <0>         0.1214
     26 H2          1.1563    3.1654    0.0076 H         1 <0>         0.1221
     27 H3          3.3051    1.9634   -0.0196 H         1 <0>         0.1214
     28 H4          1.2231   -1.7588   -0.0176 H         1 <0>         0.1217
     29 H5         -0.9258   -0.5567    0.0082 H         1 <0>         0.1222
     30 H6          3.5884   -1.6586   -0.5549 H         1 <0>         0.0818
     31 H7          4.4573   -0.1052   -0.5563 H         1 <0>         0.0813
     32 H8          4.2941   -0.0118    1.9163 H         1 <0>         0.0973
     33 H9          3.4252   -1.5652    1.9176 H         1 <0>         0.0982
     34 H10         4.5536   -1.1559    3.6674 H         1 <0>         0.0981
     35 H11         5.2643   -2.6221    4.3759 H         1 <0>         0.0781
     36 H12         6.2256    0.2033    4.4402 H         1 <0>         0.0847
     37 H13         6.2117   -1.0188    5.7186 H         1 <0>         0.0933
     38 H14         8.4598    0.1715    6.0164 H         1 <0>         0.1299
     39 H15        10.8627   -0.2012    5.7218 H         1 <0>         0.1342
     40 H16        11.6767   -1.6879    3.9325 H         1 <0>         0.1399
     41 H17         7.2222   -3.7481    2.9704 H         1 <0>         0.0963
     42 H18         7.2781   -3.5088    0.5476 H         1 <0>         0.1095
     43 H19         7.9514   -1.8696    0.6849 H         1 <0>         0.0861
     44 H20         9.5485   -4.0552    0.4903 H         1 <0>         0.4097
@<TRIPOS>BOND
     1    1    6 ar
     2    1    2 ar
     3    1   25 1
     4    2    3 ar
     5    2   26 1
     6    3    4 ar
     7    3   27 1
     8    4    5 ar
     9    4    7 1
    10    5    6 ar
    11    5   28 1
    12    6   29 1
    13    7    8 1
    14    7   30 1
    15    7   31 1
    16    8    9 1
    17    8   32 1
    18    8   33 1
    19    9   10 2
    20    9   11 am
    21   11   20 1
    22   11   12 1
    23   12   13 1
    24   12   34 1
    25   12   35 1
    26   13   14 1
    27   13   36 1
    28   13   37 1
    29   14   19 ar
    30   14   15 ar
    31   15   16 ar
    32   15   38 1
    33   16   17 ar
    34   16   39 1
    35   17   18 ar
    36   17   40 1
    37   18   23 1
    38   18   19 ar
    39   19   20 1
    40   20   21 1
    41   20   41 1
    42   21   22 1
    43   21   42 1
    44   21   43 1
    45   22   23 am
    46   22   44 1
    47   23   24 2
@<TRIPOS>MOLECULE
CHEMBL596390__1
   44    47     0     0     0
SMALL
USER_CHARGES

@<TRIPOS>ATOM
      1 C1         -0.0167    1.3781    0.0096 C.ar      1 <0>        -0.1227
      2 C2          1.1709    2.0855    0.0021 C.ar      1 <0>        -0.1179
      3 C3          2.3773    1.4107   -0.0130 C.ar      1 <0>        -0.1163
      4 C4          2.3960    0.0285   -0.0201 C.ar      1 <0>        -0.0859
      5 C5          1.2084   -0.6789   -0.0117 C.ar      1 <0>        -0.1164
      6 C6          0.0021   -0.0041    0.0020 C.ar      1 <0>        -0.1178
      7 C7          3.7112   -0.7071   -0.0376 C.3       1 <0>        -0.0652
      8 C8          4.1714   -0.9633    1.3989 C.3       1 <0>        -0.1329
      9 C9          5.4865   -1.6989    1.3815 C.2       1 <0>         0.5212
     10 O1          6.0047   -1.9897    0.3242 O.2       1 <0>        -0.5295
     11 N1          6.0868   -2.0337    2.5408 N.am      1 <0>        -0.6065
     12 C10         5.4823   -1.7015    3.8347 C.3       1 <0>         0.1074
     13 C11         5.2540   -2.9550    4.6592 C.3       1 <0>        -0.0978
     14 C12         6.2612   -4.0380    4.4072 C.ar      1 <0>        -0.0751
     15 C13         6.2158   -5.1648    5.2262 C.ar      1 <0>        -0.0940
     16 C14         7.1078   -6.2036    5.0569 C.ar      1 <0>        -0.1209
     17 C15         8.0589   -6.1469    4.0577 C.ar      1 <0>        -0.0564
     18 C16         8.1079   -5.0317    3.2269 C.ar      1 <0>        -0.1269
     19 C17         7.2205   -3.9677    3.4269 C.ar      1 <0>        -0.0677
     20 C18         7.3682   -2.7504    2.5564 C.3       1 <0>         0.1690
     21 C19         7.7510   -3.1685    1.1398 C.3       1 <0>         0.1232
     22 N2          8.9347   -4.0291    1.1699 N.am      1 <0>        -0.7229
     23 C20         9.0956   -4.9451    2.1306 C.2       1 <0>         0.5598
     24 O2         10.0391   -5.7108    2.0968 O.2       1 <0>        -0.5366
     25 H1         -0.9591    1.9053    0.0259 H         1 <0>         0.1215
     26 H2          1.1563    3.1654    0.0076 H         1 <0>         0.1222
     27 H3          3.3051    1.9634   -0.0196 H         1 <0>         0.1217
     28 H4          1.2231   -1.7588   -0.0176 H         1 <0>         0.1214
     29 H5         -0.9258   -0.5567    0.0082 H         1 <0>         0.1221
     30 H6          3.5884   -1.6586   -0.5549 H         1 <0>         0.0813
     31 H7          4.4573   -0.1052   -0.5563 H         1 <0>         0.0819
     32 H8          4.2941   -0.0118    1.9163 H         1 <0>         0.0983
     33 H9          3.4252   -1.5652    1.9176 H         1 <0>         0.0973
     34 H10         6.1461   -1.0298    4.3791 H         1 <0>         0.0783
     35 H11         4.5274   -1.2032    3.6673 H         1 <0>         0.0982
     36 H12         5.2875   -2.6876    5.7153 H         1 <0>         0.0934
     37 H13         4.2611   -3.3439    4.4333 H         1 <0>         0.0847
     38 H14         5.4708   -5.2255    6.0059 H         1 <0>         0.1296
     39 H15         7.0621   -7.0638    5.7083 H         1 <0>         0.1340
     40 H16         8.7577   -6.9592    3.9226 H         1 <0>         0.1398
     41 H17         8.1422   -2.1033    2.9689 H         1 <0>         0.0958
     42 H18         6.9214   -3.7110    0.6866 H         1 <0>         0.0881
     43 H19         7.9657   -2.2796    0.5464 H         1 <0>         0.1102
     44 H20         9.6191   -3.9288    0.4898 H         1 <0>         0.4093
@<TRIPOS>BOND
     1    1    6 ar
     2    1    2 ar
     3    1   25 1
     4    2    3 ar
     5    2   26 1
     6    3    4 ar
     7    3   27 1
     8    4    5 ar
     9    4    7 1
    10    5    6 ar
    11    5   28 1
    12    6   29 1
    13    7    8 1
    14    7   30 1
    15    7   31 1
    16    8    9 1
    17    8   32 1
    18    8   33 1
    19    9   10 2
    20    9   11 am
    21   11   20 1
    22   11   12 1
    23   12   13 1
    24   12   34 1
    25   12   35 1
    26   13   14 1
    27   13   36 1
    28   13   37 1
    29   14   19 ar
    30   14   15 ar
    31   15   16 ar
    32   15   38 1
    33   16   17 ar
    34   16   39 1
    35   17   18 ar
    36   17   40 1
    37   18   23 1
    38   18   19 ar
    39   19   20 1
    40   20   21 1
    41   20   41 1
    42   21   22 1
    43   21   42 1
    44   21   43 1
    45   22   23 am
    46   22   44 1
    47   23   24 2
@<TRIPOS>MOLECULE
CHEMBL596391
   40    43     0     0     0
SMALL
USER_CHARGES

@<TRIPOS>ATOM
      1 C1          0.0088    1.4063    0.0136 C.ar      1 <0>        -0.1384
      2 C2          1.1895    2.0584    0.3183 C.ar      1 <0>        -0.0991
      3 C3          2.3893    1.3759    0.2708 C.ar      1 <0>        -0.1519
      4 C4          2.4091    0.0333   -0.0835 C.ar      1 <0>         0.1582
      5 C5          1.2217   -0.6188   -0.3889 C.ar      1 <0>        -0.1333
      6 C6          0.0252    0.0694   -0.3396 C.ar      1 <0>        -0.1000
      7 N1          3.6231   -0.6610   -0.1330 N.am      1 <0>        -0.6791
      8 C7          3.6448   -1.9950    0.0580 C.2       1 <0>         0.7150
      9 O1          2.6018   -2.6127    0.1524 O.2       1 <0>        -0.5614
     10 N2          4.8227   -2.6444    0.1444 N.am      1 <0>        -0.6194
     11 C8          6.0889   -1.9130    0.2535 C.3       1 <0>         0.1116
     12 C9          7.0215   -2.2798   -0.8861 C.3       1 <0>        -0.0983
     13 C10         6.8545   -3.6877   -1.3767 C.ar      1 <0>        -0.0747
     14 C11         7.7689   -4.1555   -2.3189 C.ar      1 <0>        -0.0929
     15 C12         7.6816   -5.4384   -2.8189 C.ar      1 <0>        -0.1205
     16 C13         6.6716   -6.2808   -2.3985 C.ar      1 <0>        -0.0556
     17 C14         5.7464   -5.8220   -1.4658 C.ar      1 <0>        -0.1240
     18 C15         5.8621   -4.5302   -0.9391 C.ar      1 <0>        -0.0673
     19 C16         4.8866   -4.1112    0.1390 C.3       1 <0>         0.1889
     20 C17         3.5061   -4.6939   -0.1490 C.3       1 <0>         0.1203
     21 N3          3.5971   -6.1441   -0.3260 N.am      1 <0>        -0.7293
     22 C18         4.6367   -6.6855   -1.0098 C.2       1 <0>         0.5599
     23 O2          4.6601   -7.8797   -1.2350 O.2       1 <0>        -0.5304
     24 H1         -0.9285    1.9410    0.0558 H         1 <0>         0.1225
     25 H2          1.1735    3.1027    0.5934 H         1 <0>         0.1259
     26 H3          3.3111    1.8858    0.5085 H         1 <0>         0.1232
     27 H4          1.2338   -1.6628   -0.6651 H         1 <0>         0.1559
     28 H5         -0.8986   -0.4371   -0.5771 H         1 <0>         0.1252
     29 H6          4.4490   -0.1822   -0.3048 H         1 <0>         0.4068
     30 H7          5.8885   -0.8420    0.2227 H         1 <0>         0.0865
     31 H8          6.5659   -2.1609    1.2017 H         1 <0>         0.0825
     32 H9          6.8405   -1.5980   -1.7170 H         1 <0>         0.0845
     33 H10         8.0500   -2.1482   -0.5499 H         1 <0>         0.0948
     34 H11         8.5584   -3.5036   -2.6627 H         1 <0>         0.1299
     35 H12         8.4058   -5.7850   -3.5412 H         1 <0>         0.1345
     36 H13         6.6002   -7.2849   -2.7897 H         1 <0>         0.1404
     37 H14         5.2377   -4.4639    1.1088 H         1 <0>         0.0996
     38 H15         2.8396   -4.4729    0.6847 H         1 <0>         0.1195
     39 H16         3.1063   -4.2435   -1.0575 H         1 <0>         0.0791
     40 H17         2.9057   -6.7172    0.0406 H         1 <0>         0.4108
@<TRIPOS>BOND
     1    1    6 ar
     2    1    2 ar
     3    1   24 1
     4    2    3 ar
     5    2   25 1
     6    3    4 ar
     7    3   26 1
     8    4    5 ar
     9    4    7 1
    10    5    6 ar
    11    5   27 1
    12    6   28 1
    13    7    8 am
    14    7   29 1
    15    8    9 2
    16    8   10 am
    17   10   19 1
    18   10   11 1
    19   11   12 1
    20   11   30 1
    21   11   31 1
    22   12   13 1
    23   12   32 1
    24   12   33 1
    25   13   18 ar
    26   13   14 ar
    27   14   15 ar
    28   14   34 1
    29   15   16 ar
    30   15   35 1
    31   16   17 ar
    32   16   36 1
    33   17   22 1
    34   17   18 ar
    35   18   19 1
    36   19   20 1
    37   19   37 1
    38   20   21 1
    39   20   38 1
    40   20   39 1
    41   21   22 am
    42   21   40 1
    43   22   23 2
@<TRIPOS>MOLECULE
CHEMBL596391__1
   40    43     0     0     0
SMALL
USER_CHARGES

@<TRIPOS>ATOM
      1 C1          0.0189    1.4112    0.2622 C.ar      1 <0>        -0.1398
      2 C2          1.2120    2.0595    0.5238 C.ar      1 <0>        -0.0986
      3 C3          2.4083    1.3778    0.4152 C.ar      1 <0>        -0.1536
      4 C4          2.4121    0.0400    0.0429 C.ar      1 <0>         0.1587
      5 C5          1.2123   -0.6082   -0.2191 C.ar      1 <0>        -0.1401
      6 C6          0.0194    0.0791   -0.1087 C.ar      1 <0>        -0.0996
      7 N1          3.6226   -0.6534   -0.0685 N.am      1 <0>        -0.6787
      8 C7          3.6448   -1.9950    0.0580 C.2       1 <0>         0.7150
      9 O1          2.6022   -2.6196    0.0941 O.2       1 <0>        -0.5604
     10 N2          4.8227   -2.6444    0.1444 N.am      1 <0>        -0.6177
     11 C8          6.0889   -1.9130    0.2535 C.3       1 <0>         0.1112
     12 C9          6.8302   -2.3072    1.5177 C.3       1 <0>        -0.0964
     13 C10         6.5902   -3.7255    1.9438 C.ar      1 <0>        -0.0744
     14 C11         7.3449   -4.2161    3.0079 C.ar      1 <0>        -0.0939
     15 C12         7.1819   -5.5099    3.4586 C.ar      1 <0>        -0.1202
     16 C13         6.2526   -6.3407    2.8648 C.ar      1 <0>        -0.0560
     17 C14         5.4858   -5.8592    1.8082 C.ar      1 <0>        -0.1253
     18 C15         5.6810   -4.5561    1.3357 C.ar      1 <0>        -0.0677
     19 C16         4.8866   -4.1112    0.1390 C.3       1 <0>         0.1876
     20 C17         3.4789   -4.6964    0.2035 C.3       1 <0>         0.1201
     21 N3          3.5432   -6.1490    0.3720 N.am      1 <0>        -0.7220
     22 C18         4.4638   -6.7102    1.1630 C.2       1 <0>         0.5600
     23 O2          4.4534   -7.9093    1.3620 O.2       1 <0>        -0.5363
     24 H1         -0.9155    1.9452    0.3522 H         1 <0>         0.1221
     25 H2          1.2084    3.1001    0.8129 H         1 <0>         0.1257
     26 H3          3.3398    1.8848    0.6193 H         1 <0>         0.1229
     27 H4          1.2120   -1.6485   -0.5092 H         1 <0>         0.1628
     28 H5         -0.9141   -0.4245   -0.3124 H         1 <0>         0.1251
     29 H6          4.4457   -0.1684   -0.2367 H         1 <0>         0.4072
     30 H7          6.7103   -2.1402   -0.6126 H         1 <0>         0.0815
     31 H8          5.8842   -0.8426    0.2765 H         1 <0>         0.0866
     32 H9          7.8987   -2.1699    1.3515 H         1 <0>         0.0946
     33 H10         6.5188   -1.6440    2.3247 H         1 <0>         0.0846
     34 H11         8.0689   -3.5737    3.4869 H         1 <0>         0.1295
     35 H12         7.7834   -5.8741    4.2783 H         1 <0>         0.1342
     36 H13         6.1226   -7.3535    3.2165 H         1 <0>         0.1402
     37 H14         5.3828   -4.4506   -0.7702 H         1 <0>         0.0976
     38 H15         2.9438   -4.2584    1.0461 H         1 <0>         0.0979
     39 H16         2.9480   -4.4630   -0.7194 H         1 <0>         0.1067
     40 H17         2.9165   -6.7162   -0.1038 H         1 <0>         0.4093
@<TRIPOS>BOND
     1    1    6 ar
     2    1    2 ar
     3    1   24 1
     4    2    3 ar
     5    2   25 1
     6    3    4 ar
     7    3   26 1
     8    4    5 ar
     9    4    7 1
    10    5    6 ar
    11    5   27 1
    12    6   28 1
    13    7    8 am
    14    7   29 1
    15    8    9 2
    16    8   10 am
    17   10   19 1
    18   10   11 1
    19   11   12 1
    20   11   30 1
    21   11   31 1
    22   12   13 1
    23   12   32 1
    24   12   33 1
    25   13   18 ar
    26   13   14 ar
    27   14   15 ar
    28   14   34 1
    29   15   16 ar
    30   15   35 1
    31   16   17 ar
    32   16   36 1
    33   17   22 1
    34   17   18 ar
    35   18   19 1
    36   19   20 1
    37   19   37 1
    38   20   21 1
    39   20   38 1
    40   20   39 1
    41   21   22 am
    42   21   40 1
    43   22   23 2
@<TRIPOS>MOLECULE
CHEMBL105995
   41    44     0     0     0
SMALL
USER_CHARGES

@<TRIPOS>ATOM
      1 C1          0.2973    1.4467    0.1632 C.3       1 <0>        -0.0469
      2 N1          0.1554   -0.0129    0.0765 N.4       1 <0>        -0.3848
      3 C2         -1.2587   -0.3756    0.2346 C.3       1 <0>        -0.0226
      4 C3         -1.4236   -1.8852    0.0304 C.3       1 <0>         0.1036
      5 N2         -0.5114   -2.5826    0.9500 N.pl3     1 <0>        -0.6279
      6 C4          0.8996   -2.1671    0.9743 C.3       1 <0>         0.1046
      7 C5          0.9549   -0.6442    1.1340 C.3       1 <0>        -0.0226
      8 C6         -0.9701   -3.6055    1.7735 C.ar      1 <0>         0.3752
      9 C7         -2.2491   -4.1260    1.5763 C.ar      1 <0>        -0.1828
     10 C8         -2.7026   -5.1408    2.3941 C.ar      1 <0>        -0.0683
     11 C9         -1.8581   -5.6159    3.3999 C.ar      1 <0>         0.0977
     12 C10        -0.5862   -5.0470    3.5412 C.ar      1 <0>         0.1691
     13 N3         -0.1867   -4.0741    2.7277 N.ar      1 <0>        -0.4951
     14 C11         0.3069   -5.5487    4.6042 C.ar      1 <0>        -0.0136
     15 C12         1.5808   -5.0239    4.7947 C.ar      1 <0>        -0.0898
     16 C13         2.3810   -5.5235    5.8015 C.ar      1 <0>        -0.0895
     17 C14         1.9263   -6.5437    6.6238 C.ar      1 <0>        -0.1117
     18 C15         0.6668   -7.0771    6.4503 C.ar      1 <0>        -0.0510
     19 C16        -0.1572   -6.5852    5.4392 C.ar      1 <0>        -0.1254
     20 C17        -1.5077   -7.1251    5.2204 C.2       1 <0>         0.5554
     21 N4         -2.2839   -6.6336    4.2378 N.am      1 <0>        -0.6368
     22 O1         -1.9249   -8.0202    5.9316 O.2       1 <0>        -0.5064
     23 H1          1.3455    1.7179    0.0380 H         1 <0>         0.1256
     24 H2         -0.2958    1.9166   -0.6214 H         1 <0>         0.1252
     25 H3         -0.0526    1.7885    1.1372 H         1 <0>         0.1215
     26 H4         -1.5934   -0.1056    1.2362 H         1 <0>         0.1328
     27 H5         -1.8557    0.1585   -0.5046 H         1 <0>         0.1435
     28 H6         -2.4523   -2.1738    0.2461 H         1 <0>         0.1273
     29 H7         -1.1754   -2.1449   -0.9987 H         1 <0>         0.0942
     30 H8          1.4069   -2.6421    1.8141 H         1 <0>         0.1369
     31 H9          1.3825   -2.4553    0.0405 H         1 <0>         0.0875
     32 H10         1.9889   -0.3080    1.0576 H         1 <0>         0.1417
     33 H11         0.5532   -0.3661    2.1083 H         1 <0>         0.1322
     34 H12        -2.8796   -3.7377    0.7900 H         1 <0>         0.1439
     35 H13        -3.6895   -5.5584    2.2595 H         1 <0>         0.1527
     36 H14         1.9417   -4.2299    4.1577 H         1 <0>         0.1383
     37 H15         3.3704   -5.1169    5.9504 H         1 <0>         0.1363
     38 H16         2.5650   -6.9241    7.4072 H         1 <0>         0.1395
     39 H17         0.3204   -7.8718    7.0944 H         1 <0>         0.1462
     40 H18        -3.1713   -7.0043    4.1116 H         1 <0>         0.4188
     41 H19         0.4823   -0.3284   -0.8244 H         1 <0>         0.4252
@<TRIPOS>BOND
     1    1    2 1
     2    1   23 1
     3    1   24 1
     4    1   25 1
     5    2    7 1
     6    2    3 1
     7    2   41 1
     8    3    4 1
     9    3   26 1
    10    3   27 1
    11    4    5 1
    12    4   28 1
    13    4   29 1
    14    5    6 1
    15    5    8 1
    16    6    7 1
    17    6   30 1
    18    6   31 1
    19    7   32 1
    20    7   33 1
    21    8   13 ar
    22    8    9 ar
    23    9   10 ar
    24    9   34 1
    25   10   11 ar
    26   10   35 1
    27   11   21 1
    28   11   12 ar
    29   12   13 ar
    30   12   14 1
    31   14   19 ar
    32   14   15 ar
    33   15   16 ar
    34   15   36 1
    35   16   17 ar
    36   16   37 1
    37   17   18 ar
    38   17   38 1
    39   18   19 ar
    40   18   39 1
    41   19   20 1
    42   20   21 am
    43   20   22 2
    44   21   40 1
@<TRIPOS>MOLECULE
CHEMBL105995__1
   40    43     0     0     0
SMALL
USER_CHARGES

@<TRIPOS>ATOM
      1 C1          0.2935    1.4474    0.1733 C.3       1 <0>         0.0243
      2 N1          0.1602   -0.0129    0.0849 N.3       1 <0>        -0.5432
      3 C2         -1.2501   -0.4180    0.1546 C.3       1 <0>         0.0384
      4 C3         -1.3605   -1.9213   -0.1216 C.3       1 <0>         0.1287
      5 N2         -0.4627   -2.6330    0.8007 N.pl3     1 <0>        -0.6097
      6 C4          0.9378   -2.1921    0.8874 C.3       1 <0>         0.1303
      7 C5          0.9577   -0.6782    1.1239 C.3       1 <0>         0.0390
      8 C6         -0.9259   -3.6946    1.5710 C.ar      1 <0>         0.3971
      9 C7         -2.1862   -4.2337    1.3123 C.ar      1 <0>        -0.1928
     10 C8         -2.6442   -5.2868    2.0774 C.ar      1 <0>        -0.0665
     11 C9         -1.8231   -5.7812    3.0932 C.ar      1 <0>         0.0673
     12 C10        -0.5691   -5.1919    3.2975 C.ar      1 <0>         0.1704
     13 N3         -0.1644   -4.1818    2.5335 N.ar      1 <0>        -0.5053
     14 C11         0.2992   -5.7138    4.3712 C.ar      1 <0>        -0.0046
     15 C12         1.5545   -5.1704    4.6232 C.ar      1 <0>        -0.0892
     16 C13         2.3319   -5.6902    5.6377 C.ar      1 <0>        -0.0914
     17 C14         1.8727   -6.7489    6.4069 C.ar      1 <0>        -0.1195
     18 C15         0.6315   -7.3013    6.1722 C.ar      1 <0>        -0.0551
     19 C16        -0.1694   -6.7896    5.1523 C.ar      1 <0>        -0.1285
     20 C17        -1.4999   -7.3487    4.8689 C.2       1 <0>         0.5558
     21 N4         -2.2540   -6.8374    3.8791 N.am      1 <0>        -0.6332
     22 O1         -1.9207   -8.2776    5.5330 O.2       1 <0>        -0.5234
     23 H1          1.3393    1.7253    0.0427 H         1 <0>         0.0714
     24 H2         -0.3070    1.9149   -0.6071 H         1 <0>         0.0705
     25 H3         -0.0531    1.7854    1.1499 H         1 <0>         0.0260
     26 H4         -1.6422   -0.2010    1.1483 H         1 <0>         0.0389
     27 H5         -1.8238    0.1320   -0.5913 H         1 <0>         0.0890
     28 H6         -2.3873   -2.2490    0.0411 H         1 <0>         0.0875
     29 H7         -1.0663   -2.1270   -1.1507 H         1 <0>         0.0775
     30 H8          1.4305   -2.6988    1.7171 H         1 <0>         0.0988
     31 H9          1.4529   -2.4239   -0.0448 H         1 <0>         0.0699
     32 H10         1.9852   -0.3168    1.0808 H         1 <0>         0.0869
     33 H11         0.5349   -0.4575    2.1040 H         1 <0>         0.0386
     34 H12        -2.7988   -3.8297    0.5198 H         1 <0>         0.1434
     35 H13        -3.6168   -5.7193    1.8947 H         1 <0>         0.1458
     36 H14         1.9189   -4.3464    4.0277 H         1 <0>         0.1416
     37 H15         3.3068   -5.2691    5.8343 H         1 <0>         0.1338
     38 H16         2.4934   -7.1447    7.1972 H         1 <0>         0.1350
     39 H17         0.2814   -8.1261    6.7752 H         1 <0>         0.1422
     40 H18        -3.1285   -7.2213    3.7099 H         1 <0>         0.4145
@<TRIPOS>BOND
     1    1    2 1
     2    1   23 1
     3    1   24 1
     4    1   25 1
     5    2    7 1
     6    2    3 1
     7    3    4 1
     8    3   26 1
     9    3   27 1
    10    4    5 1
    11    4   28 1
    12    4   29 1
    13    5    6 1
    14    5    8 1
    15    6    7 1
    16    6   30 1
    17    6   31 1
    18    7   32 1
    19    7   33 1
    20    8   13 ar
    21    8    9 ar
    22    9   10 ar
    23    9   34 1
    24   10   11 ar
    25   10   35 1
    26   11   21 1
    27   11   12 ar
    28   12   13 ar
    29   12   14 1
    30   14   19 ar
    31   14   15 ar
    32   15   16 ar
    33   15   36 1
    34   16   17 ar
    35   16   37 1
    36   17   18 ar
    37   17   38 1
    38   18   19 ar
    39   18   39 1
    40   19   20 1
    41   20   21 am
    42   20   22 2
    43   21   40 1
@<TRIPOS>MOLECULE
CHEMBL598138
   62    65     0     0     0
SMALL
USER_CHARGES

@<TRIPOS>ATOM
      1 C1         -0.3818   -3.9588   -1.7056 C.3       1 <0>        -0.1254
      2 C2         -0.6787   -4.8777   -0.5487 C.2       1 <0>        -0.0421
      3 C3         -1.1422   -6.1448   -0.7618 C.2       1 <0>        -0.1575
      4 C4         -1.3992   -6.9508    0.3683 C.2       1 <0>         0.4827
      5 O1         -1.8140   -8.0905    0.2315 O.2       1 <0>        -0.5296
      6 N1         -1.1814   -6.4490    1.5990 N.am      1 <0>        -0.4484
      7 H1         -1.3586   -7.0045    2.3742 H         1 <0>         0.4405
      8 N2         -0.7447   -5.2542    1.7719 N.2       1 <0>        -0.2102
      9 C5         -0.4803   -4.4548    0.7761 C.2       1 <0>         0.0678
     10 C6          0.0364   -3.0656    1.0486 C.3       1 <0>        -0.0118
     11 C7          0.1612   -2.8589    2.5361 C.ar      1 <0>        -0.0864
     12 C8         -0.9105   -2.3578    3.2555 C.ar      1 <0>        -0.0532
     13 C9         -0.8063   -2.1646    4.6199 C.ar      1 <0>        -0.1525
     14 C10         0.3718   -2.4718    5.2764 C.ar      1 <0>         0.1473
     15 C11         1.4571   -2.9785    4.5549 C.ar      1 <0>        -0.1620
     16 C12         1.3401   -3.1747    3.1771 C.ar      1 <0>        -0.0486
     17 C13         2.7192   -3.3090    5.2471 C.2       1 <0>         0.5658
     18 O2          2.7067   -4.0420    6.2169 O.2       1 <0>        -0.5179
     19 N3          3.8848   -2.7979    4.8037 N.am      1 <0>        -0.6072
     20 C14         3.9034   -1.8179    3.7087 C.3       1 <0>         0.0854
     21 C15         4.6481   -0.5647    4.1852 C.3       1 <0>         0.0937
     22 N4          5.9232   -0.9770    4.7884 N.am      1 <0>        -0.6019
     23 C16         5.9046   -1.9570    5.8834 C.3       1 <0>         0.0951
     24 C17         5.1595   -3.2061    5.4107 C.3       1 <0>         0.0996
     25 C18         7.0888   -0.4659    4.3450 C.2       1 <0>         0.5187
     26 O3          8.1395   -0.8778    4.7892 O.2       1 <0>        -0.5315
     27 C19         7.0865    0.6173    3.2973 C.3       1 <0>         0.0908
     28 C20         8.4203    1.3934    3.3435 C.3       1 <0>        -0.1322
     29 C21         7.9586    2.8567    3.1036 C.3       1 <0>        -0.1557
     30 C22         6.5842    2.8525    3.8190 C.3       1 <0>         0.0458
     31 O4          6.0333    1.5504    3.5653 O.3       1 <0>        -0.3645
     32 C23         6.8916   -0.0015    1.9117 C.3       1 <0>        -0.1531
     33 F1          0.4738   -2.2824    6.6102 F         1 <0>        -0.1249
     34 C24        -1.3721   -6.6651   -2.1573 C.3       1 <0>        -0.1001
     35 H2          0.6547   -4.0895   -2.0167 H         1 <0>         0.0884
     36 H3         -1.0438   -4.1973   -2.5381 H         1 <0>         0.0827
     37 H4         -0.5416   -2.9251   -1.3990 H         1 <0>         0.0815
     38 H5          1.0136   -2.9433    0.5815 H         1 <0>         0.1034
     39 H6         -0.6574   -2.3326    0.6369 H         1 <0>         0.1056
     40 H7         -1.8326   -2.1164    2.7476 H         1 <0>         0.1371
     41 H8         -1.6460   -1.7727    5.1746 H         1 <0>         0.1437
     42 H9          2.1731   -3.5692    2.6142 H         1 <0>         0.1349
     43 H10         4.4169   -2.2428    2.8462 H         1 <0>         0.0770
     44 H11         2.8814   -1.5546    3.4360 H         1 <0>         0.1027
     45 H12         4.8402    0.0916    3.3364 H         1 <0>         0.1218
     46 H13         4.0451   -0.0407    4.9268 H         1 <0>         0.0755
     47 H14         6.9266   -2.2203    6.1562 H         1 <0>         0.1071
     48 H15         5.3911   -1.5322    6.7459 H         1 <0>         0.0751
     49 H16         4.9669   -3.8593    6.2617 H         1 <0>         0.1077
     50 H17         5.7645   -3.7320    4.6722 H         1 <0>         0.0763
     51 H18         8.8949    1.2914    4.3195 H         1 <0>         0.0898
     52 H19         9.0893    1.0625    2.5491 H         1 <0>         0.0908
     53 H20         8.6423    3.5658    3.5704 H         1 <0>         0.0878
     54 H21         7.8469    3.0639    2.0393 H         1 <0>         0.0820
     55 H22         6.7148    3.0059    4.8902 H         1 <0>         0.0631
     56 H23         5.9380    3.6246    3.4014 H         1 <0>         0.0923
     57 H24         5.9465   -0.5439    1.8856 H         1 <0>         0.0677
     58 H25         6.8784    0.7877    1.1599 H         1 <0>         0.0779
     59 H26         7.7111   -0.6891    1.7023 H         1 <0>         0.0752
     60 H27        -0.4612   -7.1391   -2.5230 H         1 <0>         0.0791
     61 H28        -2.1814   -7.3951   -2.1442 H         1 <0>         0.0787
     62 H29        -1.6399   -5.8374   -2.8141 H         1 <0>         0.0787
@<TRIPOS>BOND
     1    1    2 1
     2    1   35 1
     3    1   36 1
     4    1   37 1
     5    2    9 1
     6    2    3 2
     7    3    4 1
     8    3   34 1
     9    4    5 2
    10    4    6 am
    11    6    7 1
    12    6    8 1
    13    8    9 2
    14    9   10 1
    15   10   11 1
    16   10   38 1
    17   10   39 1
    18   11   16 ar
    19   11   12 ar
    20   12   13 ar
    21   12   40 1
    22   13   14 ar
    23   13   41 1
    24   14   15 ar
    25   14   33 1
    26   15   16 ar
    27   15   17 1
    28   16   42 1
    29   17   18 2
    30   17   19 am
    31   19   24 1
    32   19   20 1
    33   20   21 1
    34   20   43 1
    35   20   44 1
    36   21   22 1
    37   21   45 1
    38   21   46 1
    39   22   23 1
    40   22   25 am
    41   23   24 1
    42   23   47 1
    43   23   48 1
    44   24   49 1
    45   24   50 1
    46   25   26 2
    47   25   27 1
    48   27   31 1
    49   27   28 1
    50   27   32 1
    51   28   29 1
    52   28   51 1
    53   28   52 1
    54   29   30 1
    55   29   53 1
    56   29   54 1
    57   30   31 1
    58   30   55 1
    59   30   56 1
    60   32   57 1
    61   32   58 1
    62   32   59 1
    63   34   60 1
    64   34   61 1
    65   34   62 1
@<TRIPOS>MOLECULE
CHEMBL598138__1
   61    64     0     0     0
SMALL
USER_CHARGES

@<TRIPOS>ATOM
      1 C1         -3.6892   -2.4987    0.0743 C.3       1 <0>        -0.1112
      2 C2         -3.7732   -1.1591   -0.6109 C.ar      1 <0>        -0.0639
      3 C3         -4.6952   -0.9306   -1.6214 C.ar      1 <0>        -0.2013
      4 C4         -4.7175    0.3306   -2.2106 C.ar      1 <0>         0.3656
      5 O1         -5.6017    0.6033   -3.2031 O.3       1 <0>        -0.6995
      6 N1         -3.8728    1.2626   -1.7984 N.ar      1 <0>        -0.3615
      7 N2         -3.0214    1.0457   -0.8628 N.ar      1 <0>        -0.2028
      8 C5         -2.9345   -0.1162   -0.2459 C.ar      1 <0>        -0.0690
      9 C6         -1.9201   -0.3134    0.8510 C.3       1 <0>        -0.0029
     10 C7         -2.5700   -0.0625    2.1873 C.ar      1 <0>        -0.0712
     11 C8         -2.6652    1.2292    2.6767 C.ar      1 <0>        -0.0539
     12 C9         -3.2593    1.4699    3.9010 C.ar      1 <0>        -0.1541
     13 C10        -3.7639    0.4194    4.6461 C.ar      1 <0>         0.1323
     14 C11        -3.6708   -0.8870    4.1564 C.ar      1 <0>        -0.1683
     15 C12        -3.0728   -1.1193    2.9158 C.ar      1 <0>        -0.0641
     16 C13        -4.2063   -2.0151    4.9451 C.2       1 <0>         0.5714
     17 O2         -5.3615   -1.9982    5.3233 O.2       1 <0>        -0.5211
     18 N3         -3.4142   -3.0634    5.2454 N.am      1 <0>        -0.6084
     19 C14        -1.9853   -3.0438    4.9021 C.3       1 <0>         0.0851
     20 C15        -1.1716   -3.3013    6.1764 C.3       1 <0>         0.0944
     21 N4         -1.7212   -4.4843    6.8534 N.am      1 <0>        -0.5999
     22 C16        -3.1500   -4.5040    7.1967 C.3       1 <0>         0.0962
     23 C17        -3.9626   -4.2440    5.9274 C.3       1 <0>         0.0996
     24 C18        -0.9291   -5.5326    7.1538 C.2       1 <0>         0.5191
     25 O3         -1.4120   -6.5450    7.6149 O.2       1 <0>        -0.5360
     26 C19         0.5566   -5.4467    6.9165 C.3       1 <0>         0.0905
     27 C20         1.2858   -6.5035    7.7737 C.3       1 <0>        -0.1315
     28 C21         2.5523   -5.7342    8.2385 C.3       1 <0>        -0.1556
     29 C22         1.9873   -4.2989    8.3850 C.3       1 <0>         0.0462
     30 O4          1.0387   -4.1582    7.3155 O.3       1 <0>        -0.3626
     31 C23         0.8597   -5.6783    5.4349 C.3       1 <0>        -0.1552
     32 F1         -4.3443    0.6547    5.8431 F         1 <0>        -0.1316
     33 C24        -5.6431   -2.0138   -2.0679 C.3       1 <0>        -0.0804
     34 H1         -4.2910   -2.4804    0.9829 H         1 <0>         0.0639
     35 H2         -4.0645   -3.2732   -0.5945 H         1 <0>         0.0651
     36 H3         -2.6512   -2.7114    0.3303 H         1 <0>         0.0629
     37 H4         -1.5420   -1.3351    0.8169 H         1 <0>         0.0776
     38 H5         -1.0943    0.3844    0.7119 H         1 <0>         0.0860
     39 H6         -2.2728    2.0529    2.0988 H         1 <0>         0.1434
     40 H7         -3.3295    2.4799    4.2769 H         1 <0>         0.1408
     41 H8         -3.0008   -2.1254    2.5299 H         1 <0>         0.1365
     42 H9         -1.7743   -3.8229    4.1696 H         1 <0>         0.0773
     43 H10        -1.7214   -2.0697    4.4902 H         1 <0>         0.1059
     44 H11        -0.1289   -3.4811    5.9145 H         1 <0>         0.1188
     45 H12        -1.2418   -2.4366    6.8363 H         1 <0>         0.0759
     46 H13        -3.4140   -5.4780    7.6086 H         1 <0>         0.1052
     47 H14        -3.3610   -3.7249    7.9292 H         1 <0>         0.0743
     48 H15        -5.0042   -4.0625    6.1925 H         1 <0>         0.1067
     49 H16        -3.8956   -5.1106    5.2696 H         1 <0>         0.0752
     50 H17         0.6759   -6.7985    8.6276 H         1 <0>         0.0894
     51 H18         1.5578   -7.3707    7.1718 H         1 <0>         0.0899
     52 H19         2.9137   -6.1136    9.1944 H         1 <0>         0.0862
     53 H20         3.3354   -5.7727    7.4813 H         1 <0>         0.0817
     54 H21         1.4908   -4.1843    9.3486 H         1 <0>         0.0620
     55 H22         2.7866   -3.5652    8.2808 H         1 <0>         0.0916
     56 H23         0.3451   -4.9262    4.8368 H         1 <0>         0.0708
     57 H24         1.9342   -5.6026    5.2676 H         1 <0>         0.0772
     58 H25         0.5159   -6.6710    5.1445 H         1 <0>         0.0749
     59 H26        -6.5583   -1.9616   -1.4781 H         1 <0>         0.0520
     60 H27        -5.8820   -1.8755   -3.1224 H         1 <0>         0.0656
     61 H28        -5.1746   -2.9877   -1.9262 H         1 <0>         0.0488
@<TRIPOS>BOND
     1    1    2 1
     2    1   34 1
     3    1   35 1
     4    1   36 1
     5    2    8 ar
     6    2    3 ar
     7    3    4 ar
     8    3   33 1
     9    4    5 1
    10    4    6 ar
    11    6    7 ar
    12    7    8 ar
    13    8    9 1
    14    9   10 1
    15    9   37 1
    16    9   38 1
    17   10   15 ar
    18   10   11 ar
    19   11   12 ar
    20   11   39 1
    21   12   13 ar
    22   12   40 1
    23   13   14 ar
    24   13   32 1
    25   14   15 ar
    26   14   16 1
    27   15   41 1
    28   16   17 2
    29   16   18 am
    30   18   23 1
    31   18   19 1
    32   19   20 1
    33   19   42 1
    34   19   43 1
    35   20   21 1
    36   20   44 1
    37   20   45 1
    38   21   22 1
    39   21   24 am
    40   22   23 1
    41   22   46 1
    42   22   47 1
    43   23   48 1
    44   23   49 1
    45   24   25 2
    46   24   26 1
    47   26   30 1
    48   26   27 1
    49   26   31 1
    50   27   28 1
    51   27   50 1
    52   27   51 1
    53   28   29 1
    54   28   52 1
    55   28   53 1
    56   29   30 1
    57   29   54 1
    58   29   55 1
    59   31   56 1
    60   31   57 1
    61   31   58 1
    62   33   59 1
    63   33   60 1
    64   33   61 1
@<TRIPOS>MOLECULE
CHEMBL598138__2
   62    65     0     0     0
SMALL
USER_CHARGES

@<TRIPOS>ATOM
      1 C1         -0.9969   -2.4764   -1.4388 C.3       1 <0>        -0.1257
      2 C2         -1.2847   -3.5365   -0.4071 C.2       1 <0>        -0.0420
      3 C3         -1.8486   -4.7279   -0.7658 C.2       1 <0>        -0.1575
      4 C4         -2.0904   -5.6750    0.2527 C.2       1 <0>         0.4827
      5 O1         -2.5921   -6.7549   -0.0158 O.2       1 <0>        -0.5299
      6 N1         -1.7614   -5.3748    1.5236 N.am      1 <0>        -0.4484
      7 H1         -1.9285   -6.0270    2.2219 H         1 <0>         0.4404
      8 N2         -1.2319   -4.2472    1.8342 N.2       1 <0>        -0.2105
      9 C5         -0.9747   -3.3269    0.9468 C.2       1 <0>         0.0683
     10 C6         -0.3456   -2.0270    1.3777 C.3       1 <0>        -0.0123
     11 C7         -0.1139   -2.0503    2.8665 C.ar      1 <0>        -0.0868
     12 C8         -1.1007   -1.5972    3.7257 C.ar      1 <0>        -0.0525
     13 C9         -0.8980   -1.6144    5.0926 C.ar      1 <0>        -0.1532
     14 C10         0.2944   -2.0859    5.6116 C.ar      1 <0>         0.1485
     15 C11         1.2941   -2.5451    4.7486 C.ar      1 <0>        -0.1634
     16 C12         1.0777   -2.5280    3.3689 C.ar      1 <0>        -0.0488
     17 C13         2.5706   -3.0499    5.2934 C.2       1 <0>         0.5661
     18 O2          2.5665   -3.8868    6.1752 O.2       1 <0>        -0.5177
     19 N3          3.7400   -2.5827    4.8131 N.am      1 <0>        -0.6074
     20 C14         3.7620   -1.4896    3.8311 C.3       1 <0>         0.0895
     21 C15         4.6434   -0.3589    4.3760 C.3       1 <0>         0.0943
     22 N4          5.9194   -0.9331    4.8253 N.am      1 <0>        -0.6014
     23 C16         5.8974   -2.0262    5.8074 C.3       1 <0>         0.0904
     24 C17         5.0162   -3.1531    5.2667 C.3       1 <0>         0.0947
     25 C18         7.0888   -0.4659    4.3450 C.2       1 <0>         0.5232
     26 O3          7.0981    0.4806    3.5867 O.2       1 <0>        -0.5324
     27 C19         8.3848   -1.1196    4.7502 C.3       1 <0>         0.0903
     28 C20         9.5720   -0.2085    4.3708 C.3       1 <0>        -0.1398
     29 C21         9.8794    0.5086    5.7136 C.3       1 <0>        -0.1560
     30 C22         9.5457   -0.6131    6.7292 C.3       1 <0>         0.0459
     31 O4          8.4146   -1.3002    6.1708 O.3       1 <0>        -0.3650
     32 C23         8.5235   -2.4738    4.0518 C.3       1 <0>        -0.1572
     33 F1          0.4925   -2.1023    6.9479 F         1 <0>        -0.1243
     34 C24        -2.2013   -5.0214   -2.2012 C.3       1 <0>        -0.1000
     35 H2          0.0063   -2.6220   -1.8393 H         1 <0>         0.0885
     36 H3         -1.7248   -2.5488   -2.2470 H         1 <0>         0.0829
     37 H4         -1.0642   -1.4917   -0.9764 H         1 <0>         0.0815
     38 H5          0.6067   -1.8963    0.8637 H         1 <0>         0.1035
     39 H6         -1.0106   -1.2007    1.1264 H         1 <0>         0.1056
     40 H7         -2.0334   -1.2281    3.3254 H         1 <0>         0.1372
     41 H8         -1.6718   -1.2588    5.7568 H         1 <0>         0.1438
     42 H9          1.8441   -2.8846    2.6967 H         1 <0>         0.1353
     43 H10         4.1732   -1.8524    2.8890 H         1 <0>         0.0787
     44 H11         2.7490   -1.1198    3.6726 H         1 <0>         0.1031
     45 H12         4.8282    0.3724    3.5891 H         1 <0>         0.1075
     46 H13         4.1429    0.1226    5.2161 H         1 <0>         0.0747
     47 H14         6.9104   -2.3960    5.9659 H         1 <0>         0.1244
     48 H15         5.4862   -1.6634    6.7494 H         1 <0>         0.0763
     49 H16         4.8313   -3.8817    6.0561 H         1 <0>         0.1084
     50 H17         5.5188   -3.6371    4.4292 H         1 <0>         0.0749
     51 H18        10.4262   -0.8008    4.0429 H         1 <0>         0.0866
     52 H19         9.2801    0.5103    3.6051 H         1 <0>         0.1037
     53 H20        10.9295    0.7944    5.7749 H         1 <0>         0.0884
     54 H21         9.2301    1.3726    5.8552 H         1 <0>         0.0789
     55 H22        10.3901   -1.2948    6.8309 H         1 <0>         0.0674
     56 H23         9.2872   -0.1828    7.6967 H         1 <0>         0.0893
     57 H24         8.5284   -2.3268    2.9717 H         1 <0>         0.0745
     58 H25         9.4564   -2.9469    4.3583 H         1 <0>         0.0773
     59 H26         7.6844   -3.1125    4.3276 H         1 <0>         0.0689
     60 H27        -1.3506   -5.4903   -2.6958 H         1 <0>         0.0791
     61 H28        -3.0575   -5.6950   -2.2346 H         1 <0>         0.0787
     62 H29        -2.4508   -4.0911   -2.7115 H         1 <0>         0.0787
@<TRIPOS>BOND
     1    1    2 1
     2    1   35 1
     3    1   36 1
     4    1   37 1
     5    2    9 1
     6    2    3 2
     7    3    4 1
     8    3   34 1
     9    4    5 2
    10    4    6 am
    11    6    7 1
    12    6    8 1
    13    8    9 2
    14    9   10 1
    15   10   11 1
    16   10   38 1
    17   10   39 1
    18   11   16 ar
    19   11   12 ar
    20   12   13 ar
    21   12   40 1
    22   13   14 ar
    23   13   41 1
    24   14   15 ar
    25   14   33 1
    26   15   16 ar
    27   15   17 1
    28   16   42 1
    29   17   18 2
    30   17   19 am
    31   19   24 1
    32   19   20 1
    33   20   21 1
    34   20   43 1
    35   20   44 1
    36   21   22 1
    37   21   45 1
    38   21   46 1
    39   22   23 1
    40   22   25 am
    41   23   24 1
    42   23   47 1
    43   23   48 1
    44   24   49 1
    45   24   50 1
    46   25   26 2
    47   25   27 1
    48   27   31 1
    49   27   28 1
    50   27   32 1
    51   28   29 1
    52   28   51 1
    53   28   52 1
    54   29   30 1
    55   29   53 1
    56   29   54 1
    57   30   31 1
    58   30   55 1
    59   30   56 1
    60   32   57 1
    61   32   58 1
    62   32   59 1
    63   34   60 1
    64   34   61 1
    65   34   62 1
@<TRIPOS>MOLECULE
CHEMBL598138__3
   61    64     0     0     0
SMALL
USER_CHARGES

@<TRIPOS>ATOM
      1 C1         -2.1612   -3.3270   -0.5814 C.3       1 <0>        -0.1110
      2 C2         -2.2128   -2.0559   -1.3892 C.ar      1 <0>        -0.0639
      3 C3         -2.8707   -2.0114   -2.6092 C.ar      1 <0>        -0.2015
      4 C4         -2.8786   -0.8038   -3.3021 C.ar      1 <0>         0.3655
      5 O1         -3.5094   -0.7096   -4.4998 O.3       1 <0>        -0.6996
      6 N1         -2.2686    0.2522   -2.7873 N.ar      1 <0>        -0.3614
      7 N2         -1.6611    0.2055   -1.6577 N.ar      1 <0>        -0.2027
      8 C5         -1.6085   -0.8940   -0.9319 C.ar      1 <0>        -0.0689
      9 C6         -0.8867   -0.8901    0.3910 C.3       1 <0>        -0.0034
     10 C7         -1.8717   -0.6233    1.4999 C.ar      1 <0>        -0.0715
     11 C8         -2.2198    0.6793    1.8149 C.ar      1 <0>        -0.0531
     12 C9         -3.1222    0.9347    2.8301 C.ar      1 <0>        -0.1546
     13 C10        -3.6843   -0.1119    3.5386 C.ar      1 <0>         0.1331
     14 C11        -3.3366   -1.4293    3.2243 C.ar      1 <0>        -0.1694
     15 C12        -2.4274   -1.6771    2.1935 C.ar      1 <0>        -0.0639
     16 C13        -3.9313   -2.5532    3.9755 C.2       1 <0>         0.5716
     17 O2         -5.1387   -2.6370    4.0894 O.2       1 <0>        -0.5213
     18 N3         -3.1353   -3.4860    4.5349 N.am      1 <0>        -0.6087
     19 C14        -1.6737   -3.3354    4.5085 C.3       1 <0>         0.0893
     20 C15        -1.1468   -3.4141    5.9467 C.3       1 <0>         0.0950
     21 N4         -1.7250   -4.5998    6.5944 N.am      1 <0>        -0.5995
     22 C16        -3.1867   -4.7505    6.6208 C.3       1 <0>         0.0899
     23 C17        -3.7138   -4.6690    5.1875 C.3       1 <0>         0.0950
     24 C18        -0.9291   -5.5326    7.1538 C.2       1 <0>         0.5218
     25 O3          0.2704   -5.3587    7.1981 O.2       1 <0>        -0.5348
     26 C19        -1.5295   -6.7916    7.7241 C.3       1 <0>         0.0906
     27 C20        -0.5072   -7.4874    8.6483 C.3       1 <0>        -0.1394
     28 C21        -0.9579   -7.0110   10.0561 C.3       1 <0>        -0.1558
     29 C22        -2.4932   -6.9323    9.8624 C.3       1 <0>         0.0451
     30 O4         -2.6780   -6.4668    8.5161 O.3       1 <0>        -0.3637
     31 C23        -1.9319   -7.7351    6.5888 C.3       1 <0>        -0.1562
     32 F1         -4.5660    0.1379    4.5313 F         1 <0>        -0.1313
     33 C24        -3.5553   -3.2322   -3.1678 C.3       1 <0>        -0.0801
     34 H1         -2.9721   -3.3278    0.1470 H         1 <0>         0.0637
     35 H2         -2.2688   -4.1844   -1.2458 H         1 <0>         0.0651
     36 H3         -1.2054   -3.3883   -0.0611 H         1 <0>         0.0629
     37 H4         -0.4144   -1.8595    0.5500 H         1 <0>         0.0778
     38 H5         -0.1245   -0.1109    0.3868 H         1 <0>         0.0860
     39 H6         -1.7837    1.5000    1.2648 H         1 <0>         0.1436
     40 H7         -3.3886    1.9532    3.0709 H         1 <0>         0.1408
     41 H8         -2.1571   -2.6922    1.9429 H         1 <0>         0.1365
     42 H9         -1.2341   -4.1359    3.9135 H         1 <0>         0.0787
     43 H10        -1.4132   -2.3694    4.0758 H         1 <0>         0.1060
     44 H11        -0.0601   -3.4974    5.9341 H         1 <0>         0.1067
     45 H12        -1.4412   -2.5183    6.4936 H         1 <0>         0.0745
     46 H13        -3.4471   -5.7164    7.0535 H         1 <0>         0.1253
     47 H14        -3.6263   -3.9499    7.2158 H         1 <0>         0.0749
     48 H15        -4.8003   -4.5835    5.2032 H         1 <0>         0.1071
     49 H16        -3.4228   -5.5667    4.6420 H         1 <0>         0.0735
     50 H17        -0.5822   -8.5715    8.5631 H         1 <0>         0.0858
     51 H18         0.5058   -7.1492    8.4302 H         1 <0>         0.1036
     52 H19        -0.6954   -7.7420   10.8208 H         1 <0>         0.0868
     53 H20        -0.5409   -6.0318   10.2916 H         1 <0>         0.0786
     54 H21        -2.9412   -7.9182    9.9867 H         1 <0>         0.0660
     55 H22        -2.9281   -6.2263   10.5699 H         1 <0>         0.0882
     56 H23        -1.0492   -8.0007    6.0071 H         1 <0>         0.0749
     57 H24        -2.3766   -8.6380    7.0071 H         1 <0>         0.0758
     58 H25        -2.6565   -7.2386    5.9434 H         1 <0>         0.0699
     59 H26        -4.5893   -3.2581   -2.8241 H         1 <0>         0.0519
     60 H27        -3.5353   -3.1936   -4.2570 H         1 <0>         0.0655
     61 H28        -3.0363   -4.1279   -2.8265 H         1 <0>         0.0487
@<TRIPOS>BOND
     1    1    2 1
     2    1   34 1
     3    1   35 1
     4    1   36 1
     5    2    8 ar
     6    2    3 ar
     7    3    4 ar
     8    3   33 1
     9    4    5 1
    10    4    6 ar
    11    6    7 ar
    12    7    8 ar
    13    8    9 1
    14    9   10 1
    15    9   37 1
    16    9   38 1
    17   10   15 ar
    18   10   11 ar
    19   11   12 ar
    20   11   39 1
    21   12   13 ar
    22   12   40 1
    23   13   14 ar
    24   13   32 1
    25   14   15 ar
    26   14   16 1
    27   15   41 1
    28   16   17 2
    29   16   18 am
    30   18   23 1
    31   18   19 1
    32   19   20 1
    33   19   42 1
    34   19   43 1
    35   20   21 1
    36   20   44 1
    37   20   45 1
    38   21   22 1
    39   21   24 am
    40   22   23 1
    41   22   46 1
    42   22   47 1
    43   23   48 1
    44   23   49 1
    45   24   25 2
    46   24   26 1
    47   26   30 1
    48   26   27 1
    49   26   31 1
    50   27   28 1
    51   27   50 1
    52   27   51 1
    53   28   29 1
    54   28   52 1
    55   28   53 1
    56   29   30 1
    57   29   54 1
    58   29   55 1
    59   31   56 1
    60   31   57 1
    61   31   58 1
    62   33   59 1
    63   33   60 1
    64   33   61 1
@<TRIPOS>MOLECULE
CHEMBL480039
   53    56     0     0     0
SMALL
USER_CHARGES

@<TRIPOS>ATOM
      1 C1         -0.0168    1.3911    0.0097 C.ar      1 <0>        -0.1122
      2 C2          1.1648    2.0964    0.0022 C.ar      1 <0>        -0.0511
      3 C3          2.3862    1.4132   -0.0131 C.ar      1 <0>        -0.1613
      4 C4          2.4027    0.0137   -0.0207 C.ar      1 <0>        -0.0671
      5 C5          1.2185   -0.6874   -0.0132 C.ar      1 <0>        -0.1120
      6 C6          0.0021   -0.0041    0.0020 C.ar      1 <0>        -0.0176
      7 C7         -1.2726   -0.7618    0.0101 C.ar      1 <0>        -0.0514
      8 C8         -1.2826   -2.1625    0.0085 C.ar      1 <0>        -0.1086
      9 C9         -2.5108   -2.7998    0.0163 C.ar      1 <0>         0.0470
     10 N1         -3.6227   -2.0884    0.0249 N.ar      1 <0>        -0.2412
     11 N2         -3.6203   -0.8056    0.0264 N.ar      1 <0>        -0.2356
     12 C10        -2.5048   -0.1029    0.0253 C.ar      1 <0>         0.0521
     13 C11         3.6504    2.1646   -0.0216 C.2       1 <0>         0.3938
     14 O1          3.6350    3.3772   -0.0154 O.2       1 <0>        -0.4420
     15 C12         4.9648    1.4278   -0.0381 C.3       1 <0>         0.0726
     16 N3          6.0662    2.3939   -0.0439 N.am      1 <0>        -0.7240
     17 C13         7.3424    1.9608   -0.0585 C.2       1 <0>         0.5261
     18 O2          7.5791    0.7714   -0.0667 O.2       1 <0>        -0.5323
     19 C14         8.4752    2.9546   -0.0645 C.3       1 <0>        -0.1631
     20 C15         9.8098    2.2065   -0.0812 C.3       1 <0>         0.1168
     21 N4         10.9111    3.1726   -0.0871 N.am      1 <0>        -0.5392
     22 C16        11.3991    3.6247   -1.3032 C.2       1 <0>         0.2140
     23 C17        12.3872    4.5229   -1.2948 C.2       1 <0>        -0.2474
     24 C18        12.9314    4.9389   -0.0410 C.2       1 <0>         0.5551
     25 O3         13.8572    5.7296   -0.0181 O.2       1 <0>        -0.5045
     26 N5         12.4318    4.4671    1.1119 N.am      1 <0>        -0.6561
     27 H1         12.8029    4.7559    1.9603 H         1 <0>         0.4351
     28 C19        11.4083    3.5929    1.0811 C.2       1 <0>         0.6982
     29 O4         10.9356    3.1795    2.1222 O.2       1 <0>        -0.5314
     30 C20        12.9942    5.1887   -2.5045 C.3       1 <0>        -0.0104
     31 S1         12.6349    4.2241   -3.9986 S.3       1 <0>        -0.2340
     32 C21        10.8693    3.8382   -3.7695 C.3       1 <0>        -0.0834
     33 C22        10.7430    3.0038   -2.5027 C.3       1 <0>        -0.1027
     34 H2         -0.9595    1.9179    0.0260 H         1 <0>         0.1384
     35 H3          1.1496    3.1763    0.0077 H         1 <0>         0.1427
     36 H4          3.3440   -0.5157   -0.0329 H         1 <0>         0.1415
     37 H5          1.2308   -1.7673   -0.0191 H         1 <0>         0.1376
     38 H6         -0.3617   -2.7267    0.0010 H         1 <0>         0.1552
     39 H7         -2.5596   -3.8787    0.0150 H         1 <0>         0.1782
     40 H8         -2.5431    0.9764    0.0315 H         1 <0>         0.1752
     41 H9          5.0392    0.7975    0.8481 H         1 <0>         0.1100
     42 H10         5.0219    0.8064   -0.9318 H         1 <0>         0.1102
     43 H11         5.8768    3.3452   -0.0373 H         1 <0>         0.4123
     44 H12         8.4009    3.5849   -0.9507 H         1 <0>         0.1031
     45 H13         8.4182    3.5760    0.8292 H         1 <0>         0.1093
     46 H14         9.8841    1.5762    0.8049 H         1 <0>         0.1175
     47 H15         9.8668    1.5851   -0.9749 H         1 <0>         0.1115
     48 H16        12.5777    6.1902   -2.6125 H         1 <0>         0.1030
     49 H17        14.0738    5.2615   -2.3728 H         1 <0>         0.1279
     50 H18        10.2995    4.7613   -3.6628 H         1 <0>         0.0957
     51 H19        10.5004    3.2713   -4.6243 H         1 <0>         0.1260
     52 H20        11.1956    2.0284   -2.6815 H         1 <0>         0.1175
     53 H21         9.6849    2.8588   -2.2851 H         1 <0>         0.1050
@<TRIPOS>BOND
     1    1    6 ar
     2    1    2 ar
     3    1   34 1
     4    2    3 ar
     5    2   35 1
     6    3    4 ar
     7    3   13 1
     8    4    5 ar
     9    4   36 1
    10    5    6 ar
    11    5   37 1
    12    6    7 1
    13    7   12 ar
    14    7    8 ar
    15    8    9 ar
    16    8   38 1
    17    9   10 ar
    18    9   39 1
    19   10   11 ar
    20   11   12 ar
    21   12   40 1
    22   13   14 2
    23   13   15 1
    24   15   16 1
    25   15   41 1
    26   15   42 1
    27   16   17 am
    28   16   43 1
    29   17   18 2
    30   17   19 1
    31   19   20 1
    32   19   44 1
    33   19   45 1
    34   20   21 1
    35   20   46 1
    36   20   47 1
    37   21   28 am
    38   21   22 1
    39   22   33 1
    40   22   23 2
    41   23   24 1
    42   23   30 1
    43   24   25 2
    44   24   26 am
    45   26   27 1
    46   26   28 am
    47   28   29 2
    48   30   31 1
    49   30   48 1
    50   30   49 1
    51   31   32 1
    52   32   33 1
    53   32   50 1
    54   32   51 1
    55   33   52 1
    56   33   53 1
@<TRIPOS>MOLECULE
CHEMBL480234
   54    58     0     0     0
SMALL
USER_CHARGES

@<TRIPOS>ATOM
      1 C1         -0.0167    1.3792    0.0096 C.ar      1 <0>        -0.1026
      2 C2          1.1683    2.0931    0.0021 C.ar      1 <0>        -0.1154
      3 C3          2.3774    1.4286   -0.0134 C.ar      1 <0>        -0.1020
      4 C4          2.4032    0.0335   -0.0212 C.ar      1 <0>        -0.0840
      5 C5          1.2045   -0.6806   -0.0131 C.ar      1 <0>        -0.1011
      6 C6          0.0021   -0.0041    0.0020 C.ar      1 <0>        -0.1149
      7 C7          3.6950   -0.6848   -0.0384 C.2       1 <0>        -0.0447
      8 C8          4.4943   -0.5772    1.0009 C.2       1 <0>        -0.1897
      9 C9          5.8233   -1.2710    1.0843 C.3       1 <0>         0.0336
     10 N1          6.2689   -1.6856   -0.2511 N.4       1 <0>        -0.3869
     11 C10         5.1971   -2.4623   -0.8938 C.3       1 <0>        -0.0035
     12 C11         4.0456   -1.5174   -1.2408 C.3       1 <0>        -0.1138
     13 C12         7.4741   -2.5169   -0.1311 C.3       1 <0>        -0.0077
     14 C13         8.6201   -1.6750    0.4337 C.3       1 <0>        -0.0956
     15 C14         9.8565   -2.5278    0.5568 C.ar      1 <0>        -0.1358
     16 C15        10.0970   -3.2313    1.7268 C.ar      1 <0>        -0.0637
     17 C16        11.2237   -4.0151    1.8546 C.ar      1 <0>        -0.1542
     18 C17        12.1331   -4.1068    0.8050 C.ar      1 <0>         0.1972
     19 C18        11.8880   -3.3946   -0.3784 C.ar      1 <0>        -0.0914
     20 C19        10.7417   -2.6102   -0.4963 C.ar      1 <0>        -0.0535
     21 C20        12.8525   -3.4923   -1.4902 C.ar      1 <0>        -0.0080
     22 C21        12.6613   -2.8083   -2.6859 C.ar      1 <0>        -0.1215
     23 C22        13.5913   -2.9300   -3.6978 C.ar      1 <0>        -0.0789
     24 C23        14.7135   -3.7284   -3.5324 C.ar      1 <0>        -0.1225
     25 C24        14.9202   -4.4146   -2.3548 C.ar      1 <0>        -0.0445
     26 C25        13.9926   -4.3039   -1.3200 C.ar      1 <0>        -0.1399
     27 C26        14.1731   -5.0170   -0.0468 C.2       1 <0>         0.5567
     28 O1         15.1514   -5.7217    0.1179 O.2       1 <0>        -0.5054
     29 N2         13.2645   -4.8946    0.9372 N.am      1 <0>        -0.6440
     30 H1         13.4064   -5.3747    1.7681 H         1 <0>         0.4194
     31 H2         -0.9604    1.9041    0.0260 H         1 <0>         0.1297
     32 H3          1.1469    3.1729    0.0082 H         1 <0>         0.1301
     33 H4          3.3018    1.9870   -0.0200 H         1 <0>         0.1238
     34 H5          1.2178   -1.7605   -0.0194 H         1 <0>         0.1243
     35 H6         -0.9265   -0.5556    0.0079 H         1 <0>         0.1303
     36 H7          4.1807    0.0380    1.8312 H         1 <0>         0.1508
     37 H8          6.5585   -0.5912    1.5147 H         1 <0>         0.1409
     38 H9          5.7318   -2.1497    1.7228 H         1 <0>         0.1390
     39 H10         5.5771   -2.9272   -1.8035 H         1 <0>         0.1379
     40 H11         4.8408   -3.2312   -0.2083 H         1 <0>         0.1329
     41 H12         3.1757   -2.0990   -1.5459 H         1 <0>         0.1251
     42 H13         4.3502   -0.8642   -2.0585 H         1 <0>         0.1073
     43 H14         7.2735   -3.3533    0.5384 H         1 <0>         0.1332
     44 H15         7.7527   -2.8970   -1.1140 H         1 <0>         0.1343
     45 H16         8.8208   -0.8386   -0.2358 H         1 <0>         0.0962
     46 H17         8.3416   -1.2949    1.4166 H         1 <0>         0.0970
     47 H18         9.3957   -3.1644    2.5454 H         1 <0>         0.1334
     48 H19        11.4012   -4.5587    2.7708 H         1 <0>         0.1398
     49 H20        10.5501   -2.0650   -1.4087 H         1 <0>         0.1358
     50 H21        11.7895   -2.1855   -2.8218 H         1 <0>         0.1321
     51 H22        13.4440   -2.3994   -4.6268 H         1 <0>         0.1358
     52 H23        15.4320   -3.8136   -4.3342 H         1 <0>         0.1386
     53 H24        15.7963   -5.0347   -2.2344 H         1 <0>         0.1442
     54 H25         6.4742   -0.8691   -0.8071 H         1 <0>         0.4256
@<TRIPOS>BOND
     1    1    6 ar
     2    1    2 ar
     3    1   31 1
     4    2    3 ar
     5    2   32 1
     6    3    4 ar
     7    3   33 1
     8    4    5 ar
     9    4    7 1
    10    5    6 ar
    11    5   34 1
    12    6   35 1
    13    7   12 1
    14    7    8 2
    15    8    9 1
    16    8   36 1
    17    9   10 1
    18    9   37 1
    19    9   38 1
    20   10   11 1
    21   10   13 1
    22   10   54 1
    23   11   12 1
    24   11   39 1
    25   11   40 1
    26   12   41 1
    27   12   42 1
    28   13   14 1
    29   13   43 1
    30   13   44 1
    31   14   15 1
    32   14   45 1
    33   14   46 1
    34   15   20 ar
    35   15   16 ar
    36   16   17 ar
    37   16   47 1
    38   17   18 ar
    39   17   48 1
    40   18   29 1
    41   18   19 ar
    42   19   20 ar
    43   19   21 1
    44   20   49 1
    45   21   26 ar
    46   21   22 ar
    47   22   23 ar
    48   22   50 1
    49   23   24 ar
    50   23   51 1
    51   24   25 ar
    52   24   52 1
    53   25   26 ar
    54   25   53 1
    55   26   27 1
    56   27   28 2
    57   27   29 am
    58   29   30 1
@<TRIPOS>MOLECULE
CHEMBL193918
   38    41     0     0     0
SMALL
USER_CHARGES

@<TRIPOS>ATOM
      1 C1         -0.0184    1.5028    0.0103 C.3       1 <0>        -0.0725
      2 C2          0.0021   -0.0041    0.0020 C.2       1 <0>         0.2547
      3 N1          0.0075   -0.7721   -1.0896 N.2       1 <0>        -0.5401
      4 C3          0.0268   -2.0405   -0.7463 C.2       1 <0>         0.3421
      5 O1          0.0341   -2.1074    0.5963 O.3       1 <0>        -0.1036
      6 N2          0.0229   -0.7653    1.0593 N.2       1 <0>        -0.3433
      7 C4          0.0377   -3.1915   -1.6737 C.ar      1 <0>        -0.0496
      8 C5          0.0332   -2.9801   -3.0536 C.ar      1 <0>        -0.0504
      9 C6          0.0438   -4.0585   -3.9135 C.ar      1 <0>        -0.1224
     10 C7          0.0585   -5.3478   -3.4110 C.ar      1 <0>        -0.0658
     11 C8          0.0625   -5.5643   -2.0447 C.ar      1 <0>        -0.0818
     12 C9          0.0582   -4.4942   -1.1736 C.ar      1 <0>        -0.0546
     13 C10         0.0780   -6.9718   -1.5065 C.3       1 <0>        -0.0188
     14 C11         1.5038   -7.4261   -1.3290 C.2       1 <0>         0.1389
     15 C12         1.7858   -8.7689   -0.8213 C.ar      1 <0>        -0.0605
     16 C13         0.7642   -9.6610   -0.4898 C.ar      1 <0>        -0.0973
     17 C14         1.0786  -10.9053   -0.0196 C.ar      1 <0>        -0.0872
     18 C15         2.4024  -11.2965    0.1344 C.ar      1 <0>        -0.1102
     19 C16         3.4312  -10.4375   -0.1842 C.ar      1 <0>        -0.0546
     20 C17         3.1344   -9.1635   -0.6665 C.ar      1 <0>        -0.1254
     21 C18         4.1849   -8.2024   -1.0245 C.2       1 <0>         0.5286
     22 N3          3.8228   -6.9867   -1.4846 N.am      1 <0>        -0.5336
     23 N4          2.4829   -6.6268   -1.6319 N.2       1 <0>        -0.2221
     24 O2          5.3611   -8.4968   -0.9079 O.2       1 <0>        -0.5205
     25 H1          1.0042    1.8801    0.0026 H         1 <0>         0.0975
     26 H2         -0.5455    1.8639   -0.8728 H         1 <0>         0.0983
     27 H3         -0.5286    1.8543    0.9071 H         1 <0>         0.0920
     28 H4          0.0211   -1.9743   -3.4469 H         1 <0>         0.1417
     29 H5          0.0404   -3.8964   -4.9812 H         1 <0>         0.1369
     30 H6          0.0664   -6.1888   -4.0886 H         1 <0>         0.1312
     31 H7          0.0663   -4.6645   -0.1071 H         1 <0>         0.1342
     32 H8         -0.4344   -6.9987   -0.5448 H         1 <0>         0.1098
     33 H9         -0.4299   -7.6344   -2.2074 H         1 <0>         0.1112
     34 H10        -0.2694   -9.3692   -0.6041 H         1 <0>         0.1423
     35 H11         0.2867  -11.5937    0.2362 H         1 <0>         0.1369
     36 H12         2.6276  -12.2845    0.5080 H         1 <0>         0.1376
     37 H13         4.4583  -10.7483   -0.0620 H         1 <0>         0.1436
     38 H14         4.5123   -6.3474   -1.7228 H         1 <0>         0.4367
@<TRIPOS>BOND
     1    1    2 1
     2    1   25 1
     3    1   26 1
     4    1   27 1
     5    2    6 2
     6    2    3 1
     7    3    4 2
     8    4    5 1
     9    4    7 1
    10    5    6 1
    11    7   12 ar
    12    7    8 ar
    13    8    9 ar
    14    8   28 1
    15    9   10 ar
    16    9   29 1
    17   10   11 ar
    18   10   30 1
    19   11   12 ar
    20   11   13 1
    21   12   31 1
    22   13   14 1
    23   13   32 1
    24   13   33 1
    25   14   23 2
    26   14   15 1
    27   15   20 ar
    28   15   16 ar
    29   16   17 ar
    30   16   34 1
    31   17   18 ar
    32   17   35 1
    33   18   19 ar
    34   18   36 1
    35   19   20 ar
    36   19   37 1
    37   20   21 1
    38   21   22 am
    39   21   24 2
    40   22   23 1
    41   22   38 1
@<TRIPOS>MOLECULE
CHEMBL1090136
   45    48     0     0     0
SMALL
USER_CHARGES

@<TRIPOS>ATOM
      1 C1         -0.0167    1.3774    0.0096 C.ar      1 <0>        -0.1054
      2 C2          1.1628    2.0989    0.0022 C.ar      1 <0>        -0.0828
      3 C3          2.3901    1.4411   -0.0130 C.ar      1 <0>        -0.0882
      4 C4          2.4210    0.0291   -0.0208 C.ar      1 <0>         0.1022
      5 C5          1.2101   -0.6854   -0.0131 C.ar      1 <0>         0.0447
      6 C6          0.0021   -0.0041    0.0020 C.ar      1 <0>        -0.0808
      7 N1          1.5541   -2.0239   -0.0235 N.pl3     1 <0>        -0.5918
      8 H1          0.9423   -2.7767   -0.0217 H         1 <0>         0.4251
      9 C7          2.9199   -2.0865   -0.0368 C.2       1 <0>         0.3120
     10 N2          3.4185   -0.8725   -0.0351 N.2       1 <0>        -0.4469
     11 C8          3.7148   -3.3333   -0.0503 C.ar      1 <0>        -0.0134
     12 C9          3.0740   -4.5730   -0.0559 C.ar      1 <0>        -0.0970
     13 C10         3.8215   -5.7325   -0.0689 C.ar      1 <0>        -0.1059
     14 C11         5.2035   -5.6681   -0.0761 C.ar      1 <0>        -0.0835
     15 C12         5.8450   -4.4422   -0.0701 C.ar      1 <0>        -0.1136
     16 C13         5.1092   -3.2753   -0.0634 C.ar      1 <0>        -0.0624
     17 C14         6.0137   -6.9387   -0.0898 C.3       1 <0>        -0.0560
     18 C15         6.9116   -6.9870    1.1498 C.3       1 <0>        -0.1437
     19 C16         7.7883   -8.2397    1.0894 C.3       1 <0>        -0.0067
     20 N3          8.6212   -8.2005   -0.1186 N.4       1 <0>        -0.5063
     21 C17         7.7681   -8.2265   -1.3128 C.3       1 <0>        -0.0067
     22 C18         6.8906   -6.9734   -1.3448 C.3       1 <0>        -0.1437
     23 C19         3.6461    2.2117   -0.0213 C.2       1 <0>         0.5592
     24 O1          4.7151    1.6321   -0.0346 O.2       1 <0>        -0.5156
     25 N4          3.6101    3.5590   -0.0142 N.am      1 <0>        -0.8530
     26 H2         -0.9622    1.8990    0.0260 H         1 <0>         0.1436
     27 H3          1.1320    3.1784    0.0079 H         1 <0>         0.1386
     28 H4         -0.9267   -0.5551    0.0082 H         1 <0>         0.1325
     29 H5          1.9952   -4.6246   -0.0496 H         1 <0>         0.1258
     30 H6          3.3268   -6.6925   -0.0733 H         1 <0>         0.1315
     31 H7          6.9242   -4.3988   -0.0750 H         1 <0>         0.1274
     32 H8          5.6111   -2.3190   -0.0637 H         1 <0>         0.1469
     33 H9          5.3435   -7.7983   -0.0896 H         1 <0>         0.0980
     34 H10         7.5450   -6.1003    1.1752 H         1 <0>         0.0927
     35 H11         6.2927   -7.0188    2.0465 H         1 <0>         0.1151
     36 H12         8.4287   -8.2772    1.9706 H         1 <0>         0.1349
     37 H13         7.1540   -9.1257    1.0643 H         1 <0>         0.1313
     38 H14         9.1724   -7.3554   -0.1187 H         1 <0>         0.4284
     39 H15         8.3936   -8.2544   -2.2051 H         1 <0>         0.1350
     40 H16         7.1342   -9.1129   -1.2867 H         1 <0>         0.1313
     41 H17         6.2567   -6.9954   -2.2313 H         1 <0>         0.1151
     42 H18         7.5236   -6.0864   -1.3712 H         1 <0>         0.0926
     43 H19         2.7574    4.0213   -0.0036 H         1 <0>         0.4000
     44 H20         4.4368    4.0663   -0.0197 H         1 <0>         0.4069
     45 H21         9.2359   -9.0006   -0.1282 H         1 <0>         0.4324
@<TRIPOS>BOND
     1    1    6 ar
     2    1    2 ar
     3    1   26 1
     4    2    3 ar
     5    2   27 1
     6    3    4 ar
     7    3   23 1
     8    4   10 1
     9    4    5 ar
    10    5    6 ar
    11    5    7 1
    12    6   28 1
    13    7    8 1
    14    7    9 1
    15    9   10 2
    16    9   11 1
    17   11   16 ar
    18   11   12 ar
    19   12   13 ar
    20   12   29 1
    21   13   14 ar
    22   13   30 1
    23   14   15 ar
    24   14   17 1
    25   15   16 ar
    26   15   31 1
    27   16   32 1
    28   17   22 1
    29   17   18 1
    30   17   33 1
    31   18   19 1
    32   18   34 1
    33   18   35 1
    34   19   20 1
    35   19   36 1
    36   19   37 1
    37   20   21 1
    38   20   38 1
    39   20   45 1
    40   21   22 1
    41   21   39 1
    42   21   40 1
    43   22   41 1
    44   22   42 1
    45   23   24 2
    46   23   25 am
    47   25   43 1
    48   25   44 1
@<TRIPOS>MOLECULE
CHEMBL590579
   53    57     0     0     0
SMALL
USER_CHARGES

@<TRIPOS>ATOM
      1 C1         -0.1047    1.4513    0.1392 C.ar      1 <0>        -0.0565
      2 C2          1.0970    2.1310    0.0678 C.ar      1 <0>        -0.1502
      3 C3          2.2878    1.4307    0.0092 C.ar      1 <0>         0.1537
      4 C4          2.2727    0.0322    0.0224 C.ar      1 <0>        -0.1574
      5 C5          1.0538   -0.6450    0.0947 C.ar      1 <0>        -0.0587
      6 C6         -0.1255    0.0674    0.1526 C.ar      1 <0>        -0.1088
      7 C7         -1.4411   -0.6633    0.2312 C.3       1 <0>        -0.0280
      8 C8         -1.8999   -1.0228   -1.1585 C.2       1 <0>         0.0119
      9 C9         -1.1092   -0.7701   -2.1910 C.2       1 <0>         0.0861
     10 N1         -1.4786   -1.0788   -3.4899 N.am      1 <0>        -0.6432
     11 H1         -0.8756   -0.8807   -4.2234 H         1 <0>         0.4250
     12 C10        -2.6746   -1.6549   -3.7395 C.2       1 <0>         0.5828
     13 O1         -3.0070   -1.9300   -4.8787 O.2       1 <0>        -0.4989
     14 C11        -3.5618   -1.9417   -2.6124 C.2       1 <0>        -0.0403
     15 N2         -3.1440   -1.6194   -1.3348 N.pl3     1 <0>        -0.3419
     16 C12        -4.1187   -1.9805   -0.4644 C.2       1 <0>         0.0965
     17 C13        -5.1484   -2.5321   -1.1588 C.2       1 <0>        -0.0868
     18 C14        -4.8146   -2.5067   -2.5159 C.2       1 <0>        -0.0740
     19 Cl1        -6.6238   -3.1468   -0.4813 Cl        1 <0>        -0.0120
     20 Cl2        -4.0603   -1.7730    1.2582 Cl        1 <0>         0.0142
     21 C15         3.5395   -0.7244   -0.0404 C.2       1 <0>         0.5633
     22 O2          4.4169   -0.5093    0.7732 O.2       1 <0>        -0.5174
     23 N3          3.7228   -1.6533   -0.9995 N.am      1 <0>        -0.5969
     24 C16         5.0083   -2.3536   -1.1269 C.3       1 <0>         0.1090
     25 C17         5.5144   -2.1958   -2.5649 C.3       1 <0>        -0.1033
     26 C18         4.4337   -2.6607   -3.5367 C.3       1 <0>         0.0700
     27 C19         3.1648   -1.8300   -3.3685 C.3       1 <0>        -0.1262
     28 C20         2.6390   -1.9888   -1.9331 C.3       1 <0>         0.0934
     29 C21         4.1351   -4.1255   -3.3302 C.2       1 <0>         0.5025
     30 O3          3.4603   -4.5934   -2.4376 O.2       1 <0>        -0.5078
     31 N4          4.7467   -4.8262   -4.3083 N.am      1 <0>        -0.7540
     32 C22         5.4789   -3.9064   -5.1882 C.3       1 <0>         0.2506
     33 N5          4.9254   -2.5572   -4.9271 N.3       1 <0>        -0.6425
     34 F1          3.4621    2.0951   -0.0611 F         1 <0>        -0.1201
     35 H2         -1.0318    2.0030    0.1893 H         1 <0>         0.1439
     36 H3          1.1057    3.2110    0.0573 H         1 <0>         0.1495
     37 H4          1.0347   -1.7248    0.1050 H         1 <0>         0.1438
     38 H5         -1.3172   -1.5725    0.8195 H         1 <0>         0.1021
     39 H6         -2.1848   -0.0225    0.7050 H         1 <0>         0.1027
     40 H7         -0.1484   -0.3095   -2.0148 H         1 <0>         0.1797
     41 H8         -5.4195   -2.8714   -3.3330 H         1 <0>         0.1735
     42 H9          5.7308   -1.9200   -0.4355 H         1 <0>         0.1027
     43 H10         4.8723   -3.4113   -0.9012 H         1 <0>         0.0782
     44 H11         5.7482   -1.1483   -2.7551 H         1 <0>         0.0908
     45 H12         6.4114   -2.7995   -2.7028 H         1 <0>         0.0839
     46 H13         3.3887   -0.7810   -3.5622 H         1 <0>         0.0905
     47 H14         2.4078   -2.1763   -4.0721 H         1 <0>         0.0802
     48 H15         2.3210   -3.0185   -1.7692 H         1 <0>         0.1019
     49 H16         1.7976   -1.3145   -1.7738 H         1 <0>         0.0869
     50 H17         4.7084   -5.7897   -4.4138 H         1 <0>         0.4195
     51 H18         6.5425   -3.9276   -4.9508 H         1 <0>         0.0959
     52 H19         5.3215   -4.1807   -6.2313 H         1 <0>         0.0890
     53 H20         4.1706   -2.3468   -5.5628 H         1 <0>         0.3509
@<TRIPOS>BOND
     1    1    6 ar
     2    1    2 ar
     3    1   35 1
     4    2    3 ar
     5    2   36 1
     6    3    4 ar
     7    3   34 1
     8    4    5 ar
     9    4   21 1
    10    5    6 ar
    11    5   37 1
    12    6    7 1
    13    7    8 1
    14    7   38 1
    15    7   39 1
    16    8   15 1
    17    8    9 2
    18    9   10 1
    19    9   40 1
    20   10   11 1
    21   10   12 am
    22   12   13 2
    23   12   14 1
    24   14   18 2
    25   14   15 1
    26   15   16 1
    27   16   17 2
    28   16   20 1
    29   17   18 1
    30   17   19 1
    31   18   41 1
    32   21   22 2
    33   21   23 am
    34   23   28 1
    35   23   24 1
    36   24   25 1
    37   24   42 1
    38   24   43 1
    39   25   26 1
    40   25   44 1
    41   25   45 1
    42   26   33 1
    43   26   27 1
    44   26   29 1
    45   27   28 1
    46   27   46 1
    47   27   47 1
    48   28   48 1
    49   28   49 1
    50   29   30 2
    51   29   31 am
    52   31   32 1
    53   31   50 1
    54   32   33 1
    55   32   51 1
    56   32   52 1
    57   33   53 1
@<TRIPOS>MOLECULE
CHEMBL590579__1
   54    58     0     0     0
SMALL
USER_CHARGES

@<TRIPOS>ATOM
      1 C1         -0.1047    1.4513    0.1392 C.ar      1 <0>        -0.0500
      2 C2          1.0970    2.1310    0.0678 C.ar      1 <0>        -0.1462
      3 C3          2.2878    1.4307    0.0092 C.ar      1 <0>         0.1545
      4 C4          2.2727    0.0322    0.0224 C.ar      1 <0>        -0.1692
      5 C5          1.0538   -0.6450    0.0947 C.ar      1 <0>        -0.0623
      6 C6         -0.1255    0.0674    0.1526 C.ar      1 <0>        -0.1024
      7 C7         -1.4411   -0.6633    0.2312 C.3       1 <0>        -0.0340
      8 C8         -1.8999   -1.0228   -1.1585 C.2       1 <0>         0.0250
      9 C9         -1.1092   -0.7701   -2.1910 C.2       1 <0>         0.0717
     10 N1         -1.4786   -1.0788   -3.4899 N.am      1 <0>        -0.6464
     11 H1         -0.8756   -0.8807   -4.2234 H         1 <0>         0.4207
     12 C10        -2.6746   -1.6549   -3.7395 C.2       1 <0>         0.5840
     13 O1         -3.0070   -1.9300   -4.8787 O.2       1 <0>        -0.4968
     14 C11        -3.5618   -1.9417   -2.6124 C.2       1 <0>        -0.0444
     15 N2         -3.1440   -1.6194   -1.3348 N.pl3     1 <0>        -0.3477
     16 C12        -4.1187   -1.9805   -0.4644 C.2       1 <0>         0.0981
     17 C13        -5.1484   -2.5321   -1.1588 C.2       1 <0>        -0.0854
     18 C14        -4.8146   -2.5067   -2.5159 C.2       1 <0>        -0.0684
     19 Cl1        -6.6238   -3.1468   -0.4813 Cl        1 <0>        -0.0051
     20 Cl2        -4.0603   -1.7730    1.2582 Cl        1 <0>         0.0185
     21 C15         3.5395   -0.7244   -0.0404 C.2       1 <0>         0.5706
     22 O2          4.4169   -0.5093    0.7732 O.2       1 <0>        -0.4977
     23 N3          3.7228   -1.6533   -0.9995 N.am      1 <0>        -0.6114
     24 C16         5.0083   -2.3536   -1.1269 C.3       1 <0>         0.1139
     25 C17         5.5144   -2.1958   -2.5649 C.3       1 <0>        -0.1416
     26 C18         4.4337   -2.6607   -3.5367 C.3       1 <0>         0.0289
     27 C19         3.1648   -1.8300   -3.3685 C.3       1 <0>        -0.1456
     28 C20         2.6390   -1.9888   -1.9331 C.3       1 <0>         0.0943
     29 C21         4.1351   -4.1255   -3.3302 C.2       1 <0>         0.5245
     30 O3          3.4603   -4.5934   -2.4376 O.2       1 <0>        -0.4354
     31 N4          4.7467   -4.8262   -4.3083 N.am      1 <0>        -0.7328
     32 C22         5.4789   -3.9064   -5.1882 C.3       1 <0>         0.2278
     33 N5          4.9254   -2.5572   -4.9271 N.4       1 <0>        -0.5175
     34 F1          3.4621    2.0951   -0.0611 F         1 <0>        -0.1201
     35 H2         -1.0318    2.0030    0.1893 H         1 <0>         0.1479
     36 H3          1.1057    3.2110    0.0573 H         1 <0>         0.1531
     37 H4          1.0347   -1.7248    0.1050 H         1 <0>         0.1443
     38 H5         -1.3172   -1.5725    0.8195 H         1 <0>         0.1049
     39 H6         -2.1848   -0.0225    0.7050 H         1 <0>         0.1066
     40 H7         -0.1484   -0.3095   -2.0148 H         1 <0>         0.1761
     41 H8         -5.4195   -2.8714   -3.3330 H         1 <0>         0.1752
     42 H9          5.7308   -1.9200   -0.4355 H         1 <0>         0.1220
     43 H10         4.8723   -3.4113   -0.9012 H         1 <0>         0.0894
     44 H11         5.7482   -1.1483   -2.7551 H         1 <0>         0.1130
     45 H12         6.4114   -2.7995   -2.7028 H         1 <0>         0.1091
     46 H13         3.3887   -0.7810   -3.5622 H         1 <0>         0.1103
     47 H14         2.4078   -2.1763   -4.0721 H         1 <0>         0.1076
     48 H15         2.3210   -3.0185   -1.7692 H         1 <0>         0.1094
     49 H16         1.7976   -1.3145   -1.7738 H         1 <0>         0.1088
     50 H17         4.7084   -5.7897   -4.4138 H         1 <0>         0.4515
     51 H18         6.5425   -3.9276   -4.9508 H         1 <0>         0.1499
     52 H19         5.3215   -4.1807   -6.2313 H         1 <0>         0.1563
     53 H20         4.1657   -2.3551   -5.5597 H         1 <0>         0.4415
     54 H21         5.6472   -1.8559   -4.9987 H         1 <0>         0.4511
@<TRIPOS>BOND
     1    1    6 ar
     2    1    2 ar
     3    1   35 1
     4    2    3 ar
     5    2   36 1
     6    3    4 ar
     7    3   34 1
     8    4    5 ar
     9    4   21 1
    10    5    6 ar
    11    5   37 1
    12    6    7 1
    13    7    8 1
    14    7   38 1
    15    7   39 1
    16    8   15 1
    17    8    9 2
    18    9   10 1
    19    9   40 1
    20   10   11 1
    21   10   12 am
    22   12   13 2
    23   12   14 1
    24   14   18 2
    25   14   15 1
    26   15   16 1
    27   16   17 2
    28   16   20 1
    29   17   18 1
    30   17   19 1
    31   18   41 1
    32   21   22 2
    33   21   23 am
    34   23   28 1
    35   23   24 1
    36   24   25 1
    37   24   42 1
    38   24   43 1
    39   25   26 1
    40   25   44 1
    41   25   45 1
    42   26   33 1
    43   26   27 1
    44   26   29 1
    45   27   28 1
    46   27   46 1
    47   27   47 1
    48   28   48 1
    49   28   49 1
    50   29   30 2
    51   29   31 am
    52   31   32 1
    53   31   50 1
    54   32   33 1
    55   32   51 1
    56   32   52 1
    57   33   53 1
    58   33   54 1
@<TRIPOS>MOLECULE
CHEMBL590088
   53    57     0     0     0
SMALL
USER_CHARGES

@<TRIPOS>ATOM
      1 C1         -0.0279    1.2516   -0.1651 C.ar      1 <0>        -0.0496
      2 C2          1.1265    1.9311   -0.5068 C.ar      1 <0>        -0.1472
      3 C3          2.3599    1.3257   -0.3511 C.ar      1 <0>         0.1597
      4 C4          2.4358    0.0234    0.1533 C.ar      1 <0>        -0.1741
      5 C5          1.2641   -0.6545    0.4955 C.ar      1 <0>        -0.0591
      6 C6          0.0415   -0.0374    0.3345 C.ar      1 <0>        -0.1059
      7 C7         -1.2233   -0.7687    0.7043 C.3       1 <0>        -0.0244
      8 C8         -1.7691   -1.4741   -0.5105 C.2       1 <0>        -0.0004
      9 C9         -1.0856   -1.4405   -1.6449 C.2       1 <0>         0.0956
     10 N1         -1.5386   -2.0706   -2.7924 N.am      1 <0>        -0.6448
     11 H1         -1.0133   -2.0267   -3.6067 H         1 <0>         0.4276
     12 C10        -2.7083   -2.7460   -2.7824 C.2       1 <0>         0.5807
     13 O1         -3.1137   -3.3032   -3.7870 O.2       1 <0>        -0.4912
     14 C11        -3.4775   -2.7945   -1.5391 C.2       1 <0>        -0.0383
     15 N2         -2.9791   -2.1541   -0.4201 N.pl3     1 <0>        -0.3435
     16 C12        -3.8513   -2.3406    0.6010 C.2       1 <0>         0.0935
     17 C13        -4.8941   -3.0917    0.1591 C.2       1 <0>        -0.0847
     18 C14        -4.6759   -3.3785   -1.1914 C.2       1 <0>        -0.0720
     19 Cl1        -6.2624   -3.5944    1.1017 Cl        1 <0>        -0.0081
     20 Cl2        -3.6656   -1.7213    2.2121 Cl        1 <0>         0.0097
     21 C15         3.7486   -0.6316    0.3226 C.2       1 <0>         0.5704
     22 O2          4.5601   -0.6096   -0.5823 O.2       1 <0>        -0.4966
     23 N3          4.0470   -1.2537    1.4804 N.am      1 <0>        -0.6172
     24 C16         5.2975   -2.0119    1.6181 C.3       1 <0>         0.1005
     25 C17         6.0714   -1.4723    2.8264 C.3       1 <0>        -0.1460
     26 C18         5.1530   -1.4709    4.0484 C.3       1 <0>         0.0657
     27 C19         5.8813   -1.1510    5.3579 C.3       1 <0>        -0.1506
     28 C20         4.9578   -2.2348    5.9329 C.3       1 <0>         0.0033
     29 N4          4.8847   -2.8172    4.5794 N.4       1 <0>        -0.5333
     30 C21         3.8882   -0.6385    3.8371 C.3       1 <0>        -0.1389
     31 C22         3.1294   -1.1782    2.6248 C.3       1 <0>         0.0881
     32 F1          3.4879    1.9898   -0.6854 F         1 <0>        -0.1168
     33 H2         -0.9885    1.7305   -0.2844 H         1 <0>         0.1482
     34 H3          1.0649    2.9365   -0.8963 H         1 <0>         0.1538
     35 H4          1.3153   -1.6605    0.8852 H         1 <0>         0.1408
     36 H5         -1.0057   -1.5005    1.4822 H         1 <0>         0.0976
     37 H6         -1.9609   -0.0556    1.0723 H         1 <0>         0.1038
     38 H7         -0.1477   -0.9059   -1.6760 H         1 <0>         0.1786
     39 H8         -5.3193   -3.9578   -1.8371 H         1 <0>         0.1753
     40 H9          5.0701   -3.0669    1.7713 H         1 <0>         0.0725
     41 H10         5.8982   -1.8927    0.7164 H         1 <0>         0.1184
     42 H11         6.9348   -2.1088    3.0200 H         1 <0>         0.1050
     43 H12         6.4057   -0.4554    2.6205 H         1 <0>         0.1189
     44 H13         6.9379   -1.4186    5.3581 H         1 <0>         0.1275
     45 H14         5.6884   -0.1497    5.7431 H         1 <0>         0.1309
     46 H15         5.4489   -2.8833    6.6585 H         1 <0>         0.1415
     47 H16         4.0040   -1.8473    6.2908 H         1 <0>         0.1521
     48 H17         3.9686   -3.1672    4.3419 H         1 <0>         0.4216
     49 H18         3.2565   -0.7042    4.7229 H         1 <0>         0.1070
     50 H19         4.1619    0.4015    3.6594 H         1 <0>         0.1221
     51 H20         2.3021   -0.5098    2.3863 H         1 <0>         0.1176
     52 H21         2.7448   -2.1727    2.8510 H         1 <0>         0.0740
     53 H22         5.6216   -3.4789    4.3867 H         1 <0>         0.4407
@<TRIPOS>BOND
     1    1    6 ar
     2    1    2 ar
     3    1   33 1
     4    2    3 ar
     5    2   34 1
     6    3    4 ar
     7    3   32 1
     8    4    5 ar
     9    4   21 1
    10    5    6 ar
    11    5   35 1
    12    6    7 1
    13    7    8 1
    14    7   36 1
    15    7   37 1
    16    8   15 1
    17    8    9 2
    18    9   10 1
    19    9   38 1
    20   10   11 1
    21   10   12 am
    22   12   13 2
    23   12   14 1
    24   14   18 2
    25   14   15 1
    26   15   16 1
    27   16   17 2
    28   16   20 1
    29   17   18 1
    30   17   19 1
    31   18   39 1
    32   21   22 2
    33   21   23 am
    34   23   31 1
    35   23   24 1
    36   24   25 1
    37   24   40 1
    38   24   41 1
    39   25   26 1
    40   25   42 1
    41   25   43 1
    42   26   29 1
    43   26   27 1
    44   26   30 1
    45   27   28 1
    46   27   44 1
    47   27   45 1
    48   28   29 1
    49   28   46 1
    50   28   47 1
    51   29   48 1
    52   29   53 1
    53   30   31 1
    54   30   49 1
    55   30   50 1
    56   31   51 1
    57   31   52 1
@<TRIPOS>MOLECULE
CHEMBL557411
   36    39     0     0     0
SMALL
USER_CHARGES

@<TRIPOS>ATOM
      1 C1         -0.0132    1.3523    0.0137 C.2       1 <0>        -0.1887
      2 C2          1.3108    1.7992    0.0743 C.2       1 <0>        -0.0839
      3 C3          2.1149    0.6811    0.0704 C.2       1 <0>        -0.0717
      4 C4          3.5675    0.5024    0.1177 C.2       1 <0>         0.5865
      5 O1          4.3026    1.4713    0.1728 O.2       1 <0>        -0.5048
      6 N1          4.0853   -0.7419    0.1003 N.am      1 <0>        -0.6517
      7 H1          5.0471   -0.8638    0.1316 H         1 <0>         0.4243
      8 C5          3.2471   -1.8562    0.0381 C.ar      1 <0>         0.1470
      9 C6          3.8000   -3.1274    0.0218 C.ar      1 <0>        -0.0727
     10 C7          2.9698   -4.2467   -0.0403 C.ar      1 <0>        -0.1025
     11 C8          1.5822   -4.0839   -0.0859 C.ar      1 <0>        -0.1235
     12 C9          1.0357   -2.8206   -0.0695 C.ar      1 <0>        -0.1063
     13 C10         1.8601   -1.7019   -0.0072 C.ar      1 <0>         0.1164
     14 N2          1.2938   -0.4260    0.0085 N.pl3     1 <0>        -0.3768
     15 C11         0.0050   -0.0020   -0.0253 C.2       1 <0>         0.0303
     16 C12         3.5561   -5.6020   -0.0583 C.2       1 <0>         0.5755
     17 O2          4.7588   -5.7426   -0.1670 O.2       1 <0>        -0.5280
     18 N3          2.7579   -6.6830    0.0457 N.am      1 <0>        -0.6133
     19 C13         1.2880   -6.6640    0.0662 C.3       1 <0>         0.0842
     20 C14         0.8130   -8.1238    0.2240 C.3       1 <0>        -0.1361
     21 C15         2.0467   -8.8247    0.8517 C.3       1 <0>        -0.1348
     22 C16         3.2141   -8.0809    0.1514 C.3       1 <0>         0.1045
     23 H2         -0.8946    1.9764    0.0044 H         1 <0>         0.1588
     24 H3          1.6403    2.8269    0.1157 H         1 <0>         0.1575
     25 H4          4.8723   -3.2511    0.0567 H         1 <0>         0.1547
     26 H5          0.9385   -4.9498   -0.1344 H         1 <0>         0.1737
     27 H6         -0.0367   -2.6975   -0.1048 H         1 <0>         0.1458
     28 H7         -0.8648   -0.6403   -0.0749 H         1 <0>         0.1773
     29 H8          0.9367   -6.0668    0.9077 H         1 <0>         0.0834
     30 H9          0.9096   -6.2500   -0.8684 H         1 <0>         0.0825
     31 H10        -0.0448   -8.1799    0.8941 H         1 <0>         0.0876
     32 H11         0.5747   -8.5588   -0.7466 H         1 <0>         0.0813
     33 H12         2.0746   -8.6741    1.9309 H         1 <0>         0.0790
     34 H13         2.0595   -9.8867    0.6066 H         1 <0>         0.0888
     35 H14         3.3922   -8.4978   -0.8399 H         1 <0>         0.0734
     36 H15         4.1186   -8.1401    0.7568 H         1 <0>         0.0822
@<TRIPOS>BOND
     1    1   15 2
     2    1    2 1
     3    1   23 1
     4    2    3 2
     5    2   24 1
     6    3   14 1
     7    3    4 1
     8    4    5 2
     9    4    6 am
    10    6    7 1
    11    6    8 1
    12    8   13 ar
    13    8    9 ar
    14    9   10 ar
    15    9   25 1
    16   10   11 ar
    17   10   16 1
    18   11   12 ar
    19   11   26 1
    20   12   13 ar
    21   12   27 1
    22   13   14 1
    23   14   15 1
    24   15   28 1
    25   16   17 2
    26   16   18 am
    27   18   22 1
    28   18   19 1
    29   19   20 1
    30   19   29 1
    31   19   30 1
    32   20   21 1
    33   20   31 1
    34   20   32 1
    35   21   22 1
    36   21   33 1
    37   21   34 1
    38   22   35 1
    39   22   36 1
@<TRIPOS>MOLECULE
CHEMBL248827
   52    56     0     0     0
SMALL
USER_CHARGES

@<TRIPOS>ATOM
      1 C1         -0.0167    1.3792    0.0096 C.ar      1 <0>        -0.1024
      2 C2          1.1683    2.0931    0.0021 C.ar      1 <0>        -0.1153
      3 C3          2.3774    1.4286   -0.0134 C.ar      1 <0>        -0.1019
      4 C4          2.4032    0.0335   -0.0212 C.ar      1 <0>        -0.0840
      5 C5          1.2045   -0.6806   -0.0131 C.ar      1 <0>        -0.1007
      6 C6          0.0021   -0.0041    0.0020 C.ar      1 <0>        -0.1148
      7 C7          3.6950   -0.6848   -0.0384 C.2       1 <0>        -0.0439
      8 C8          4.4943   -0.5772    1.0009 C.2       1 <0>        -0.1897
      9 C9          5.8233   -1.2710    1.0843 C.3       1 <0>         0.0353
     10 N1          6.2689   -1.6856   -0.2511 N.4       1 <0>        -0.3833
     11 C10         5.1971   -2.4623   -0.8938 C.3       1 <0>        -0.0065
     12 C11         4.0456   -1.5174   -1.2408 C.3       1 <0>        -0.1131
     13 C12         7.4741   -2.5169   -0.1311 C.3       1 <0>         0.0628
     14 H1          7.2670   -3.3989    0.4748 H         1 <0>         0.1567
     15 C13         7.9823   -2.9327   -1.5305 C.3       1 <0>        -0.1382
     16 C14         9.5146   -2.9001   -1.3297 C.3       1 <0>        -0.0874
     17 C15         9.7355   -1.9293   -0.1930 C.2       1 <0>        -0.0057
     18 C16         8.6059   -1.7181    0.4727 C.2       1 <0>        -0.2020
     19 C17        11.0264   -1.3045    0.1335 C.2       1 <0>         0.4122
     20 N2         11.0855   -0.4443    1.1980 N.am      1 <0>        -0.6514
     21 H2         10.2856   -0.2616    1.7154 H         1 <0>         0.4158
     22 C18        12.2536    0.1517    1.5324 C.2       1 <0>         0.5565
     23 O1         12.3242    0.9183    2.4753 O.2       1 <0>        -0.4909
     24 C19        13.4346   -0.1618    0.7142 C.ar      1 <0>        -0.1755
     25 C20        14.6814    0.4013    0.9795 C.ar      1 <0>        -0.0394
     26 C21        15.7580    0.0756    0.1840 C.ar      1 <0>        -0.1058
     27 C22        15.6112   -0.8074   -0.8781 C.ar      1 <0>        -0.0638
     28 C23        14.3887   -1.3759   -1.1588 C.ar      1 <0>        -0.0212
     29 C24        13.2796   -1.0610   -0.3653 C.ar      1 <0>         0.1447
     30 N3         12.0681   -1.6003   -0.6037 N.2       1 <0>        -0.4678
     31 Cl1        14.2242   -2.4779   -2.4900 Cl        1 <0>        -0.0310
     32 H3         -0.9604    1.9041    0.0260 H         1 <0>         0.1298
     33 H4          1.1469    3.1729    0.0082 H         1 <0>         0.1300
     34 H5          3.3018    1.9870   -0.0200 H         1 <0>         0.1235
     35 H6          1.2178   -1.7605   -0.0194 H         1 <0>         0.1246
     36 H7         -0.9265   -0.5556    0.0079 H         1 <0>         0.1304
     37 H8          4.1807    0.0380    1.8312 H         1 <0>         0.1513
     38 H9          6.5585   -0.5912    1.5147 H         1 <0>         0.1378
     39 H10         5.7318   -2.1497    1.7228 H         1 <0>         0.1402
     40 H11         5.5771   -2.9272   -1.8035 H         1 <0>         0.1395
     41 H12         4.8408   -3.2312   -0.2083 H         1 <0>         0.1349
     42 H13         3.1757   -2.0990   -1.5459 H         1 <0>         0.1263
     43 H14         4.3502   -0.8642   -2.0585 H         1 <0>         0.1075
     44 H15         7.6434   -3.9366   -1.7863 H         1 <0>         0.1155
     45 H16         7.6725   -2.2129   -2.2880 H         1 <0>         0.0992
     46 H17         9.8831   -3.8899   -1.0602 H         1 <0>         0.1130
     47 H18        10.0081   -2.5440   -2.2340 H         1 <0>         0.1117
     48 H19         8.5082   -1.0647    1.3270 H         1 <0>         0.1553
     49 H20        14.8028    1.0889    1.8034 H         1 <0>         0.1508
     50 H21        16.7250    0.5112    0.3878 H         1 <0>         0.1521
     51 H22        16.4661   -1.0510   -1.4914 H         1 <0>         0.1528
     52 H23         6.4742   -0.8691   -0.8071 H         1 <0>         0.4256
@<TRIPOS>BOND
     1    1    6 ar
     2    1    2 ar
     3    1   32 1
     4    2    3 ar
     5    2   33 1
     6    3    4 ar
     7    3   34 1
     8    4    5 ar
     9    4    7 1
    10    5    6 ar
    11    5   35 1
    12    6   36 1
    13    7   12 1
    14    7    8 2
    15    8    9 1
    16    8   37 1
    17    9   10 1
    18    9   38 1
    19    9   39 1
    20   10   11 1
    21   10   13 1
    22   10   52 1
    23   11   12 1
    24   11   40 1
    25   11   41 1
    26   12   42 1
    27   12   43 1
    28   13   14 1
    29   13   18 1
    30   13   15 1
    31   15   16 1
    32   15   44 1
    33   15   45 1
    34   16   17 1
    35   16   46 1
    36   16   47 1
    37   17   18 2
    38   17   19 1
    39   18   48 1
    40   19   30 2
    41   19   20 1
    42   20   21 1
    43   20   22 am
    44   22   23 2
    45   22   24 1
    46   24   29 ar
    47   24   25 ar
    48   25   26 ar
    49   25   49 1
    50   26   27 ar
    51   26   50 1
    52   27   28 ar
    53   27   51 1
    54   28   29 ar
    55   28   31 1
    56   29   30 1
@<TRIPOS>MOLECULE
CHEMBL248827__1
   51    55     0     0     0
SMALL
USER_CHARGES

@<TRIPOS>ATOM
      1 C1         -0.0167    1.3792    0.0096 C.ar      1 <0>        -0.1207
      2 C2          1.1683    2.0931    0.0021 C.ar      1 <0>        -0.1187
      3 C3          2.3774    1.4286   -0.0134 C.ar      1 <0>        -0.1075
      4 C4          2.4032    0.0335   -0.0212 C.ar      1 <0>        -0.0534
      5 C5          1.2045   -0.6806   -0.0131 C.ar      1 <0>        -0.1095
      6 C6          0.0021   -0.0041    0.0020 C.ar      1 <0>        -0.1190
      7 C7          3.6950   -0.6848   -0.0384 C.2       1 <0>        -0.0748
      8 C8          4.4914   -0.5751    1.0019 C.2       1 <0>        -0.1465
      9 C9          5.8211   -1.2671    1.0922 C.3       1 <0>         0.0818
     10 N1          6.2564   -1.7073   -0.2392 N.3       1 <0>        -0.5182
     11 C10         5.1852   -2.4719   -0.8990 C.3       1 <0>         0.0498
     12 C11         4.0418   -1.5160   -1.2421 C.3       1 <0>        -0.0741
     13 C12         7.4919   -2.4975   -0.1546 C.3       1 <0>         0.1061
     14 H1          7.7881   -2.8443   -1.1446 H         1 <0>         0.1096
     15 C13         8.6237   -1.6596    0.4828 C.3       1 <0>        -0.1167
     16 C14         9.3766   -2.7273    1.3089 C.3       1 <0>        -0.0741
     17 C15         8.3463   -3.7962    1.5906 C.2       1 <0>        -0.0921
     18 C16         7.3028   -3.6707    0.7788 C.2       1 <0>        -0.1440
     19 C17         8.4814   -4.8359    2.6222 C.2       1 <0>         0.4488
     20 N2          7.4701   -5.7486    2.7667 N.am      1 <0>        -0.6519
     21 H2          6.6890   -5.6974    2.1938 H         1 <0>         0.4176
     22 C18         7.5547   -6.7214    3.7037 C.2       1 <0>         0.5563
     23 O1          6.6656   -7.5406    3.8454 O.2       1 <0>        -0.5035
     24 C19         8.7611   -6.7520    4.5439 C.ar      1 <0>        -0.1915
     25 C20         8.9406   -7.7149    5.5351 C.ar      1 <0>        -0.0352
     26 C21        10.0889   -7.7019    6.2962 C.ar      1 <0>        -0.1254
     27 C22        11.0671   -6.7388    6.0840 C.ar      1 <0>        -0.0626
     28 C23        10.9111   -5.7777    5.1101 C.ar      1 <0>        -0.0328
     29 C24         9.7534   -5.7697    4.3237 C.ar      1 <0>         0.1662
     30 N3          9.5657   -4.8499    3.3572 N.2       1 <0>        -0.4954
     31 Cl1        12.1447   -4.5823    4.8588 Cl        1 <0>        -0.0372
     32 H3         -0.9604    1.9041    0.0260 H         1 <0>         0.1218
     33 H4          1.1469    3.1729    0.0082 H         1 <0>         0.1233
     34 H5          3.3018    1.9870   -0.0200 H         1 <0>         0.1230
     35 H6          1.2178   -1.7605   -0.0194 H         1 <0>         0.1209
     36 H7         -0.9265   -0.5556    0.0079 H         1 <0>         0.1228
     37 H8          4.1747    0.0418    1.8299 H         1 <0>         0.1137
     38 H9          6.5591   -0.5787    1.5040 H         1 <0>         0.0929
     39 H10         5.7334   -2.1333    1.7480 H         1 <0>         0.0490
     40 H11         5.5693   -2.9274   -1.8117 H         1 <0>         0.0831
     41 H12         4.8203   -3.2471   -0.2251 H         1 <0>         0.0394
     42 H13         3.1677   -2.0893   -1.5509 H         1 <0>         0.0772
     43 H14         4.3523   -0.8622   -2.0570 H         1 <0>         0.0845
     44 H15         9.2704   -1.2308   -0.2828 H         1 <0>         0.0878
     45 H16         8.2171   -0.8815    1.1287 H         1 <0>         0.0844
     46 H17        10.2036   -3.1403    0.7313 H         1 <0>         0.0890
     47 H18         9.7418   -2.2972    2.2416 H         1 <0>         0.0883
     48 H19         6.4373   -4.3166    0.7850 H         1 <0>         0.1293
     49 H20         8.1840   -8.4664    5.7059 H         1 <0>         0.1457
     50 H21        10.2297   -8.4471    7.0651 H         1 <0>         0.1458
     51 H22        11.9608   -6.7437    6.6903 H         1 <0>         0.1470
@<TRIPOS>BOND
     1    1    6 ar
     2    1    2 ar
     3    1   32 1
     4    2    3 ar
     5    2   33 1
     6    3    4 ar
     7    3   34 1
     8    4    5 ar
     9    4    7 1
    10    5    6 ar
    11    5   35 1
    12    6   36 1
    13    7   12 1
    14    7    8 2
    15    8    9 1
    16    8   37 1
    17    9   10 1
    18    9   38 1
    19    9   39 1
    20   10   11 1
    21   10   13 1
    22   11   12 1
    23   11   40 1
    24   11   41 1
    25   12   42 1
    26   12   43 1
    27   13   14 1
    28   13   18 1
    29   13   15 1
    30   15   16 1
    31   15   44 1
    32   15   45 1
    33   16   17 1
    34   16   46 1
    35   16   47 1
    36   17   18 2
    37   17   19 1
    38   18   48 1
    39   19   30 2
    40   19   20 1
    41   20   21 1
    42   20   22 am
    43   22   23 2
    44   22   24 1
    45   24   29 ar
    46   24   25 ar
    47   25   26 ar
    48   25   49 1
    49   26   27 ar
    50   26   50 1
    51   27   28 ar
    52   27   51 1
    53   28   29 ar
    54   28   31 1
    55   29   30 1
@<TRIPOS>MOLECULE
CHEMBL107764
   54    57     0     0     0
SMALL
USER_CHARGES

@<TRIPOS>ATOM
      1 C1         -0.0167    1.3787    0.0096 C.ar      1 <0>        -0.1691
      2 C2          1.1813    2.0723    0.0019 C.ar      1 <0>        -0.0611
      3 C3          2.3717    1.3393   -0.0134 C.ar      1 <0>        -0.1120
      4 C4          2.3057   -0.0534   -0.0202 C.ar      1 <0>         0.1172
      5 N1          1.1414   -0.6691   -0.0129 N.ar      1 <0>        -0.4814
      6 C5          0.0021   -0.0041    0.0020 C.ar      1 <0>         0.1057
      7 C6          3.6826    2.0314   -0.0227 C.ar      1 <0>        -0.0007
      8 C7          3.7343    3.4260   -0.0103 C.ar      1 <0>        -0.1241
      9 C8          4.9454    4.0683   -0.0184 C.ar      1 <0>        -0.0490
     10 C9          6.1311    3.3240   -0.0391 C.ar      1 <0>        -0.1730
     11 C10         6.0767    1.9251   -0.0515 C.ar      1 <0>        -0.0633
     12 C11         4.8633    1.2873   -0.0379 C.ar      1 <0>        -0.1229
     13 C12         7.4309    4.0103   -0.0483 C.2       1 <0>         0.3950
     14 O1          7.4769    5.2222   -0.0380 O.2       1 <0>        -0.4465
     15 C13         8.7064    3.2081   -0.0706 C.3       1 <0>         0.0724
     16 N2          9.8552    4.1172   -0.0760 N.am      1 <0>        -0.7235
     17 C14        11.1078    3.6203   -0.0953 C.2       1 <0>         0.5256
     18 O2         11.2840    2.4204   -0.1081 O.2       1 <0>        -0.5326
     19 C15        12.2895    4.5555   -0.1008 C.3       1 <0>        -0.1629
     20 C16        13.5844    3.7410   -0.1235 C.3       1 <0>         0.1167
     21 N3         14.7332    4.6502   -0.1289 N.am      1 <0>        -0.5391
     22 C17        15.2405    5.0812   -1.3447 C.2       1 <0>         0.2145
     23 C18        16.2728    5.9284   -1.3358 C.2       1 <0>        -0.2479
     24 C19        16.8402    6.3119   -0.0820 C.2       1 <0>         0.5551
     25 O3         17.8050    7.0547   -0.0588 O.2       1 <0>        -0.5050
     26 N4         16.3202    5.8619    1.0706 N.am      1 <0>        -0.6561
     27 H1         16.7075    6.1287    1.9190 H         1 <0>         0.4350
     28 C20        15.2537    5.0407    1.0394 C.2       1 <0>         0.6981
     29 O4         14.7632    4.6482    2.0804 O.2       1 <0>        -0.5313
     30 C21        16.9098    6.5668   -2.5448 C.3       1 <0>        -0.0102
     31 S1         16.4986    5.6268   -4.0412 S.3       1 <0>        -0.2343
     32 C22        14.7163    5.3298   -3.8089 C.3       1 <0>        -0.0832
     33 C23        14.5510    4.4985   -2.5446 C.3       1 <0>        -0.1029
     34 H2         -0.9559    1.9116    0.0259 H         1 <0>         0.1411
     35 H3          1.1959    3.1522    0.0072 H         1 <0>         0.1392
     36 H4          3.2172   -0.6325   -0.0321 H         1 <0>         0.1602
     37 H5         -0.9308   -0.5482    0.0084 H         1 <0>         0.1602
     38 H6          2.8194    3.9997    0.0053 H         1 <0>         0.1339
     39 H7          4.9849    5.1475   -0.0092 H         1 <0>         0.1387
     40 H8          6.9900    1.3489   -0.0678 H         1 <0>         0.1391
     41 H9          4.8209    0.2081   -0.0430 H         1 <0>         0.1369
     42 H10         8.7509    2.5717    0.8133 H         1 <0>         0.1096
     43 H11         8.7298    2.5877   -0.9665 H         1 <0>         0.1098
     44 H12         9.7142    5.0769   -0.0657 H         1 <0>         0.4120
     45 H13        12.2450    5.1919   -0.9847 H         1 <0>         0.1029
     46 H14        12.2660    5.1759    0.7951 H         1 <0>         0.1090
     47 H15        13.6289    3.1047    0.7604 H         1 <0>         0.1176
     48 H16        13.6079    3.1206   -1.0194 H         1 <0>         0.1116
     49 H17        16.5442    7.5884   -2.6483 H         1 <0>         0.1028
     50 H18        17.9920    6.5845   -2.4156 H         1 <0>         0.1278
     51 H19        14.1942    6.2802   -3.6977 H         1 <0>         0.0956
     52 H20        14.3172    4.7853   -4.6646 H         1 <0>         0.1260
     53 H21        14.9533    3.5021   -2.7278 H         1 <0>         0.1176
     54 H22        13.4874    4.4065   -2.3248 H         1 <0>         0.1053
@<TRIPOS>BOND
     1    1    6 ar
     2    1    2 ar
     3    1   34 1
     4    2    3 ar
     5    2   35 1
     6    3    4 ar
     7    3    7 1
     8    4    5 ar
     9    4   36 1
    10    5    6 ar
    11    6   37 1
    12    7   12 ar
    13    7    8 ar
    14    8    9 ar
    15    8   38 1
    16    9   10 ar
    17    9   39 1
    18   10   11 ar
    19   10   13 1
    20   11   12 ar
    21   11   40 1
    22   12   41 1
    23   13   14 2
    24   13   15 1
    25   15   16 1
    26   15   42 1
    27   15   43 1
    28   16   17 am
    29   16   44 1
    30   17   18 2
    31   17   19 1
    32   19   20 1
    33   19   45 1
    34   19   46 1
    35   20   21 1
    36   20   47 1
    37   20   48 1
    38   21   28 am
    39   21   22 1
    40   22   33 1
    41   22   23 2
    42   23   24 1
    43   23   30 1
    44   24   25 2
    45   24   26 am
    46   26   27 1
    47   26   28 am
    48   28   29 2
    49   30   31 1
    50   30   49 1
    51   30   50 1
    52   31   32 1
    53   32   33 1
    54   32   51 1
    55   32   52 1
    56   33   53 1
    57   33   54 1
@<TRIPOS>MOLECULE
CHEMBL249220
   56    60     0     0     0
SMALL
USER_CHARGES

@<TRIPOS>ATOM
      1 C1          0.0437    1.4867    0.1289 C.ar      1 <0>        -0.1021
      2 C2          1.2241    2.1686   -0.1069 C.ar      1 <0>        -0.1151
      3 C3          2.4235    1.4873   -0.1377 C.ar      1 <0>        -0.1019
      4 C4          2.4442    0.1076    0.0701 C.ar      1 <0>        -0.0845
      5 C5          1.2502   -0.5741    0.3079 C.ar      1 <0>        -0.1008
      6 C6          0.0574    0.1189    0.3357 C.ar      1 <0>        -0.1148
      7 C7          3.7255   -0.6286    0.0380 C.2       1 <0>        -0.0441
      8 C8          4.6255   -0.3760    0.9637 C.2       1 <0>        -0.1893
      9 C9          5.9541   -1.0732    1.0229 C.3       1 <0>         0.0343
     10 N1          6.2621   -1.6982   -0.2686 N.4       1 <0>        -0.3846
     11 C10         5.1288   -2.5450   -0.6732 C.3       1 <0>        -0.0082
     12 C11         3.9512   -1.6442   -1.0482 C.3       1 <0>        -0.1128
     13 C12         7.4708   -2.5231   -0.1398 C.3       1 <0>         0.0263
     14 C13         8.6123   -1.6710    0.4198 C.3       1 <0>        -0.1611
     15 C14         9.8611   -2.5427    0.5853 C.3       1 <0>         0.1366
     16 N2         10.1627   -3.1859   -0.7008 N.pl3     1 <0>        -0.6061
     17 C15         9.1055   -3.9555   -1.3708 C.3       1 <0>         0.1197
     18 C16         7.8652   -3.0679   -1.5144 C.3       1 <0>        -0.1595
     19 C17        11.4078   -3.0698   -1.2656 C.2       1 <0>         0.6316
     20 N3         11.6049   -3.5807   -2.5154 N.am      1 <0>        -0.6693
     21 H1         10.8709   -4.0129   -2.9796 H         1 <0>         0.4087
     22 C18        12.8157   -3.4892   -3.1127 C.2       1 <0>         0.5657
     23 O1         13.0051   -3.9400   -4.2275 O.2       1 <0>        -0.4998
     24 C19        13.8930   -2.8254   -2.3664 C.ar      1 <0>        -0.2239
     25 C20        15.1750   -2.6805   -2.8947 C.ar      1 <0>        -0.0308
     26 C21        16.1407   -2.0536   -2.1568 C.ar      1 <0>        -0.1476
     27 C22        15.8577   -1.5610   -0.8893 C.ar      1 <0>        -0.0587
     28 C23        14.6100   -1.6898   -0.3473 C.ar      1 <0>        -0.1253
     29 C24        13.6013   -2.3254   -1.0770 C.ar      1 <0>         0.1933
     30 N4         12.3493   -2.4693   -0.5820 N.2       1 <0>        -0.5747
     31 H2         -0.8920    2.0252    0.1561 H         1 <0>         0.1300
     32 H3          1.2067    3.2364   -0.2676 H         1 <0>         0.1302
     33 H4          3.3443    2.0206   -0.3226 H         1 <0>         0.1236
     34 H5          1.2596   -1.6419    0.4691 H         1 <0>         0.1242
     35 H6         -0.8675   -0.4076    0.5194 H         1 <0>         0.1305
     36 H7          4.3987    0.3664    1.7145 H         1 <0>         0.1518
     37 H8          6.7308   -0.3486    1.2672 H         1 <0>         0.1419
     38 H9          5.9245   -1.8403    1.7967 H         1 <0>         0.1399
     39 H10         5.4142   -3.1524   -1.5321 H         1 <0>         0.1378
     40 H11         4.8408   -3.1915    0.1559 H         1 <0>         0.1344
     41 H12         3.0533   -2.2497   -1.1713 H         1 <0>         0.1258
     42 H13         4.1742   -1.1315   -1.9839 H         1 <0>         0.1068
     43 H14         7.2728   -3.3542    0.5371 H         1 <0>         0.1436
     44 H15         8.8276   -0.8539   -0.2687 H         1 <0>         0.0944
     45 H16         8.3216   -1.2642    1.3884 H         1 <0>         0.1071
     46 H17        10.7031   -1.9208    0.8892 H         1 <0>         0.1276
     47 H18         9.6764   -3.3060    1.3412 H         1 <0>         0.0845
     48 H19         9.4490   -4.2658   -2.3577 H         1 <0>         0.0959
     49 H20         8.8591   -4.8340   -0.7745 H         1 <0>         0.0957
     50 H21         7.0427   -3.6554   -1.9225 H         1 <0>         0.1066
     51 H22         8.0875   -2.2377   -2.1847 H         1 <0>         0.0959
     52 H23        15.4038   -3.0608   -3.8793 H         1 <0>         0.1375
     53 H24        17.1346   -1.9405   -2.5640 H         1 <0>         0.1348
     54 H25        16.6353   -1.0692   -0.3237 H         1 <0>         0.1357
     55 H26        14.4041   -1.3020    0.6394 H         1 <0>         0.1381
     56 H27         6.4131   -0.9818   -0.9630 H         1 <0>         0.4242
@<TRIPOS>BOND
     1    1    6 ar
     2    1    2 ar
     3    1   31 1
     4    2    3 ar
     5    2   32 1
     6    3    4 ar
     7    3   33 1
     8    4    5 ar
     9    4    7 1
    10    5    6 ar
    11    5   34 1
    12    6   35 1
    13    7   12 1
    14    7    8 2
    15    8    9 1
    16    8   36 1
    17    9   10 1
    18    9   37 1
    19    9   38 1
    20   10   11 1
    21   10   13 1
    22   10   56 1
    23   11   12 1
    24   11   39 1
    25   11   40 1
    26   12   41 1
    27   12   42 1
    28   13   18 1
    29   13   14 1
    30   13   43 1
    31   14   15 1
    32   14   44 1
    33   14   45 1
    34   15   16 1
    35   15   46 1
    36   15   47 1
    37   16   17 1
    38   16   19 1
    39   17   18 1
    40   17   48 1
    41   17   49 1
    42   18   50 1
    43   18   51 1
    44   19   30 2
    45   19   20 1
    46   20   21 1
    47   20   22 am
    48   22   23 2
    49   22   24 1
    50   24   29 ar
    51   24   25 ar
    52   25   26 ar
    53   25   52 1
    54   26   27 ar
    55   26   53 1
    56   27   28 ar
    57   27   54 1
    58   28   29 ar
    59   28   55 1
    60   29   30 1
@<TRIPOS>MOLECULE
CHEMBL108137
   53    56     0     0     0
SMALL
USER_CHARGES

@<TRIPOS>ATOM
      1 C1         -0.0169    1.3914    0.0097 C.ar      1 <0>        -0.1212
      2 C2          1.1603    2.0941    0.0022 C.ar      1 <0>        -0.0479
      3 C3          2.3821    1.4107   -0.0131 C.ar      1 <0>        -0.1690
      4 C4          2.3985    0.0108   -0.0208 C.ar      1 <0>        -0.0629
      5 C5          1.2188   -0.6876   -0.0133 C.ar      1 <0>        -0.1207
      6 C6          0.0021   -0.0041    0.0020 C.ar      1 <0>        -0.0003
      7 C7         -1.2722   -0.7615    0.0106 C.ar      1 <0>        -0.1636
      8 C8         -2.5025   -0.0978    0.0205 C.ar      1 <0>         0.1645
      9 N1         -3.6146   -0.8120    0.0275 N.ar      1 <0>        -0.5147
     10 C9         -3.5742   -2.1298    0.0253 C.ar      1 <0>         0.2994
     11 N2         -2.4359   -2.7951    0.0165 N.ar      1 <0>        -0.5146
     12 C10        -1.2771   -2.1594    0.0032 C.ar      1 <0>         0.1648
     13 C11         3.6456    2.1617   -0.0217 C.2       1 <0>         0.3944
     14 O1          3.6303    3.3744   -0.0154 O.2       1 <0>        -0.4445
     15 C12         4.9601    1.4249   -0.0382 C.3       1 <0>         0.0724
     16 N3          6.0614    2.3909   -0.0440 N.am      1 <0>        -0.7237
     17 C13         7.3376    1.9579   -0.0587 C.2       1 <0>         0.5258
     18 O2          7.5743    0.7684   -0.0670 O.2       1 <0>        -0.5325
     19 C14         8.4705    2.9516   -0.0647 C.3       1 <0>        -0.1630
     20 C15         9.8050    2.2035   -0.0815 C.3       1 <0>         0.1167
     21 N4         10.9064    3.1696   -0.0873 N.am      1 <0>        -0.5392
     22 C16        11.3943    3.6217   -1.3034 C.2       1 <0>         0.2142
     23 C17        12.3825    4.5200   -1.2950 C.2       1 <0>        -0.2476
     24 C18        12.9267    4.9358   -0.0412 C.2       1 <0>         0.5551
     25 O3         13.8526    5.7265   -0.0182 O.2       1 <0>        -0.5048
     26 N5         12.4272    4.4640    1.1117 N.am      1 <0>        -0.6561
     27 H1         12.7983    4.7528    1.9601 H         1 <0>         0.4351
     28 C19        11.4036    3.5898    1.0809 C.2       1 <0>         0.6982
     29 O4         10.9309    3.1764    2.1220 O.2       1 <0>        -0.5313
     30 C20        12.9894    5.1857   -2.5047 C.3       1 <0>        -0.0103
     31 S1         12.6300    4.2213   -3.9989 S.3       1 <0>        -0.2341
     32 C21        10.8645    3.8354   -3.7696 C.3       1 <0>        -0.0834
     33 C22        10.7382    3.0009   -2.5029 C.3       1 <0>        -0.1028
     34 H2         -0.9595    1.9182    0.0260 H         1 <0>         0.1357
     35 H3          1.1452    3.1740    0.0078 H         1 <0>         0.1407
     36 H4          3.3398   -0.5186   -0.0330 H         1 <0>         0.1403
     37 H5          1.2310   -1.7675   -0.0196 H         1 <0>         0.1366
     38 H6         -2.5436    0.9815    0.0228 H         1 <0>         0.1721
     39 H7         -4.5025   -2.6817    0.0312 H         1 <0>         0.2013
     40 H8         -0.3488   -2.7112   -0.0090 H         1 <0>         0.1726
     41 H9          5.0344    0.7945    0.8479 H         1 <0>         0.1097
     42 H10         5.0171    0.8035   -0.9319 H         1 <0>         0.1100
     43 H11         5.8721    3.3423   -0.0374 H         1 <0>         0.4122
     44 H12         8.3962    3.5820   -0.9508 H         1 <0>         0.1030
     45 H13         8.4135    3.5730    0.8291 H         1 <0>         0.1091
     46 H14         9.8794    1.5732    0.8047 H         1 <0>         0.1175
     47 H15         9.8620    1.5822   -0.9752 H         1 <0>         0.1116
     48 H16        12.5729    6.1872   -2.6126 H         1 <0>         0.1029
     49 H17        14.0690    5.2586   -2.3730 H         1 <0>         0.1278
     50 H18        10.2947    4.7585   -3.6629 H         1 <0>         0.0956
     51 H19        10.4955    3.2686   -4.6245 H         1 <0>         0.1260
     52 H20        11.1908    2.0255   -2.6818 H         1 <0>         0.1176
     53 H21         9.6801    2.8560   -2.2853 H         1 <0>         0.1052
@<TRIPOS>BOND
     1    1    6 ar
     2    1    2 ar
     3    1   34 1
     4    2    3 ar
     5    2   35 1
     6    3    4 ar
     7    3   13 1
     8    4    5 ar
     9    4   36 1
    10    5    6 ar
    11    5   37 1
    12    6    7 1
    13    7   12 ar
    14    7    8 ar
    15    8    9 ar
    16    8   38 1
    17    9   10 ar
    18   10   11 ar
    19   10   39 1
    20   11   12 ar
    21   12   40 1
    22   13   14 2
    23   13   15 1
    24   15   16 1
    25   15   41 1
    26   15   42 1
    27   16   17 am
    28   16   43 1
    29   17   18 2
    30   17   19 1
    31   19   20 1
    32   19   44 1
    33   19   45 1
    34   20   21 1
    35   20   46 1
    36   20   47 1
    37   21   28 am
    38   21   22 1
    39   22   33 1
    40   22   23 2
    41   23   24 1
    42   23   30 1
    43   24   25 2
    44   24   26 am
    45   26   27 1
    46   26   28 am
    47   28   29 2
    48   30   31 1
    49   30   48 1
    50   30   49 1
    51   31   32 1
    52   32   33 1
    53   32   50 1
    54   32   51 1
    55   33   52 1
    56   33   53 1
@<TRIPOS>MOLECULE
CHEMBL399635
   53    57     0     0     0
SMALL
USER_CHARGES

@<TRIPOS>ATOM
      1 C1         -0.0167    1.3792    0.0096 C.ar      1 <0>        -0.1020
      2 C2          1.1683    2.0931    0.0021 C.ar      1 <0>        -0.1154
      3 C3          2.3774    1.4286   -0.0134 C.ar      1 <0>        -0.1017
      4 C4          2.4032    0.0335   -0.0212 C.ar      1 <0>        -0.0851
      5 C5          1.2045   -0.6806   -0.0131 C.ar      1 <0>        -0.1004
      6 C6          0.0021   -0.0041    0.0020 C.ar      1 <0>        -0.1147
      7 C7          3.6950   -0.6848   -0.0384 C.2       1 <0>        -0.0418
      8 C8          4.4943   -0.5772    1.0009 C.2       1 <0>        -0.1913
      9 C9          5.8233   -1.2710    1.0843 C.3       1 <0>         0.0388
     10 N1          6.2689   -1.6856   -0.2511 N.4       1 <0>        -0.3778
     11 C10         5.1971   -2.4623   -0.8938 C.3       1 <0>        -0.0087
     12 C11         4.0456   -1.5174   -1.2408 C.3       1 <0>        -0.1132
     13 C12         7.4741   -2.5169   -0.1311 C.3       1 <0>         0.0024
     14 C13         8.6792   -1.6797    0.3732 C.3       1 <0>        -0.1400
     15 C14         9.8932   -2.4429   -0.1971 C.3       1 <0>         0.0995
     16 N2          9.4146   -3.2309   -1.3424 N.pl3     1 <0>        -0.6090
     17 C15         7.9743   -2.9740   -1.5241 C.3       1 <0>         0.1215
     18 C16        10.1816   -4.0662   -2.1148 C.2       1 <0>         0.6516
     19 N3         11.5053   -4.1992   -1.8113 N.am      1 <0>        -0.6646
     20 H1         11.8791   -3.7072   -1.0636 H         1 <0>         0.4128
     21 C17        12.3008   -5.0120   -2.5447 C.2       1 <0>         0.5664
     22 O1         13.4830   -5.1404   -2.2845 O.2       1 <0>        -0.4953
     23 C18        11.6848   -5.7340   -3.6661 C.ar      1 <0>        -0.2216
     24 C19        12.4190   -6.5950   -4.4806 C.ar      1 <0>        -0.0300
     25 C20        11.7952   -7.2426   -5.5111 C.ar      1 <0>        -0.1459
     26 C21        10.4410   -7.0515   -5.7535 C.ar      1 <0>        -0.0587
     27 C22         9.6980   -6.2132   -4.9711 C.ar      1 <0>        -0.1250
     28 C23        10.3066   -5.5371   -3.9097 C.ar      1 <0>         0.1922
     29 N4          9.6077   -4.7023   -3.1050 N.2       1 <0>        -0.5771
     30 H2         -0.9604    1.9041    0.0260 H         1 <0>         0.1299
     31 H3          1.1469    3.1729    0.0082 H         1 <0>         0.1301
     32 H4          3.3018    1.9870   -0.0200 H         1 <0>         0.1237
     33 H5          1.2178   -1.7605   -0.0194 H         1 <0>         0.1247
     34 H6         -0.9265   -0.5556    0.0079 H         1 <0>         0.1306
     35 H7          4.1807    0.0380    1.8312 H         1 <0>         0.1526
     36 H8          6.5585   -0.5912    1.5147 H         1 <0>         0.1406
     37 H9          5.7318   -2.1497    1.7228 H         1 <0>         0.1405
     38 H10         5.5771   -2.9272   -1.8035 H         1 <0>         0.1403
     39 H11         4.8408   -3.2312   -0.2083 H         1 <0>         0.1367
     40 H12         3.1757   -2.0990   -1.5459 H         1 <0>         0.1277
     41 H13         4.3502   -0.8642   -2.0585 H         1 <0>         0.1087
     42 H14         7.2928   -3.3727    0.5191 H         1 <0>         0.1599
     43 H15         8.6386   -0.6662   -0.0258 H         1 <0>         0.1046
     44 H16         8.7098   -1.6653    1.4627 H         1 <0>         0.1193
     45 H17        10.6545   -1.7356   -0.5261 H         1 <0>         0.0929
     46 H18        10.3046   -3.1065    0.5634 H         1 <0>         0.0905
     47 H19         7.4620   -3.8860   -1.8306 H         1 <0>         0.1163
     48 H20         7.8196   -2.1853   -2.2604 H         1 <0>         0.0905
     49 H21        13.4724   -6.7491   -4.2994 H         1 <0>         0.1387
     50 H22        12.3620   -7.9098   -6.1436 H         1 <0>         0.1358
     51 H23         9.9684   -7.5730   -6.5728 H         1 <0>         0.1362
     52 H24         8.6459   -6.0741   -5.1712 H         1 <0>         0.1372
     53 H25         6.4742   -0.8691   -0.8071 H         1 <0>         0.4258
@<TRIPOS>BOND
     1    1    6 ar
     2    1    2 ar
     3    1   30 1
     4    2    3 ar
     5    2   31 1
     6    3    4 ar
     7    3   32 1
     8    4    5 ar
     9    4    7 1
    10    5    6 ar
    11    5   33 1
    12    6   34 1
    13    7   12 1
    14    7    8 2
    15    8    9 1
    16    8   35 1
    17    9   10 1
    18    9   36 1
    19    9   37 1
    20   10   11 1
    21   10   13 1
    22   10   53 1
    23   11   12 1
    24   11   38 1
    25   11   39 1
    26   12   40 1
    27   12   41 1
    28   13   17 1
    29   13   14 1
    30   13   42 1
    31   14   15 1
    32   14   43 1
    33   14   44 1
    34   15   16 1
    35   15   45 1
    36   15   46 1
    37   16   17 1
    38   16   18 1
    39   17   47 1
    40   17   48 1
    41   18   29 2
    42   18   19 1
    43   19   20 1
    44   19   21 am
    45   21   22 2
    46   21   23 1
    47   23   28 ar
    48   23   24 ar
    49   24   25 ar
    50   24   49 1
    51   25   26 ar
    52   25   50 1
    53   26   27 ar
    54   26   51 1
    55   27   28 ar
    56   27   52 1
    57   28   29 1
@<TRIPOS>MOLECULE
CHEMBL399635__1
   52    56     0     0     0
SMALL
USER_CHARGES

@<TRIPOS>ATOM
      1 C1          0.2654    1.6511   -1.5691 C.ar      1 <0>        -0.1204
      2 C2          0.5532    1.0952   -0.3354 C.ar      1 <0>        -0.1189
      3 C3          1.7376    0.4145   -0.1415 C.ar      1 <0>        -0.1075
      4 C4          2.6457    0.2871   -1.1932 C.ar      1 <0>        -0.0539
      5 C5          2.3491    0.8497   -2.4352 C.ar      1 <0>        -0.1091
      6 C6          1.1615    1.5283   -2.6159 C.ar      1 <0>        -0.1189
      7 C7          3.9166   -0.4404   -0.9924 C.2       1 <0>        -0.0725
      8 C8          3.8720   -1.7301   -0.7409 C.2       1 <0>        -0.1479
      9 C9          5.1011   -2.5663   -0.5282 C.3       1 <0>         0.0871
     10 N1          6.2564   -1.7073   -0.2392 N.3       1 <0>        -0.5201
     11 C10         6.3743   -0.6514   -1.2583 C.3       1 <0>         0.0489
     12 C11         5.2078    0.3233   -1.0900 C.3       1 <0>        -0.0739
     13 C12         7.4919   -2.4975   -0.1546 C.3       1 <0>         0.0653
     14 C13         7.3998   -3.5540    0.9779 C.3       1 <0>        -0.1211
     15 C14         8.8768   -3.7707    1.3693 C.3       1 <0>         0.0997
     16 N2          9.6214   -2.5774    0.9413 N.pl3     1 <0>        -0.6015
     17 C15         8.6769   -1.6251    0.3295 C.3       1 <0>         0.1381
     18 C16        10.9716   -2.3821    1.0880 C.2       1 <0>         0.6572
     19 N3         11.7112   -3.3678    1.6738 N.am      1 <0>        -0.6665
     20 H1         11.2766   -4.1814    1.9739 H         1 <0>         0.4121
     21 C17        13.0461   -3.2199    1.8393 C.2       1 <0>         0.5684
     22 O1         13.7180   -4.0916    2.3595 O.2       1 <0>        -0.5104
     23 C18        13.6547   -1.9688    1.3674 C.ar      1 <0>        -0.2352
     24 C19        15.0210   -1.7210    1.4916 C.ar      1 <0>        -0.0274
     25 C20        15.5354   -0.5390    1.0347 C.ar      1 <0>        -0.1616
     26 C21        14.7122    0.4145    0.4497 C.ar      1 <0>        -0.0594
     27 C22        13.3697    0.1976    0.3159 C.ar      1 <0>        -0.1323
     28 C23        12.8139   -1.0009    0.7726 C.ar      1 <0>         0.2101
     29 N4         11.4904   -1.2607    0.6544 N.2       1 <0>        -0.5869
     30 H2         -0.6649    2.1794   -1.7169 H         1 <0>         0.1218
     31 H3         -0.1505    1.1946    0.4778 H         1 <0>         0.1231
     32 H4          1.9614   -0.0184    0.8222 H         1 <0>         0.1227
     33 H5          3.0481    0.7548   -3.2531 H         1 <0>         0.1215
     34 H6          0.9309    1.9645   -3.5766 H         1 <0>         0.1230
     35 H7          2.9064   -2.2106   -0.6843 H         1 <0>         0.1147
     36 H8          4.9364   -3.2437    0.3097 H         1 <0>         0.0901
     37 H9          5.3009   -3.1496   -1.4271 H         1 <0>         0.0490
     38 H10         7.3176   -0.1209   -1.1285 H         1 <0>         0.0849
     39 H11         6.3349   -1.0961   -2.2526 H         1 <0>         0.0417
     40 H12         5.1677    0.9953   -1.9474 H         1 <0>         0.0785
     41 H13         5.3544    0.9056   -0.1803 H         1 <0>         0.0848
     42 H14         7.7184   -2.9681   -1.1113 H         1 <0>         0.0636
     43 H15         6.8301   -3.1657    1.8222 H         1 <0>         0.0953
     44 H16         6.9593   -4.4795    0.6071 H         1 <0>         0.0882
     45 H17         8.9601   -3.8921    2.4493 H         1 <0>         0.0770
     46 H18         9.2686   -4.6533    0.8637 H         1 <0>         0.0736
     47 H19         9.1437   -1.1172   -0.5145 H         1 <0>         0.0884
     48 H20         8.3369   -0.9000    1.0689 H         1 <0>         0.0859
     49 H21        15.6683   -2.4567    1.9455 H         1 <0>         0.1337
     50 H22        16.5935   -0.3448    1.1302 H         1 <0>         0.1297
     51 H23        15.1393    1.3411    0.0957 H         1 <0>         0.1312
     52 H24        12.7415    0.9479   -0.1411 H         1 <0>         0.1361
@<TRIPOS>BOND
     1    1    6 ar
     2    1    2 ar
     3    1   30 1
     4    2    3 ar
     5    2   31 1
     6    3    4 ar
     7    3   32 1
     8    4    5 ar
     9    4    7 1
    10    5    6 ar
    11    5   33 1
    12    6   34 1
    13    7   12 1
    14    7    8 2
    15    8    9 1
    16    8   35 1
    17    9   10 1
    18    9   36 1
    19    9   37 1
    20   10   11 1
    21   10   13 1
    22   11   12 1
    23   11   38 1
    24   11   39 1
    25   12   40 1
    26   12   41 1
    27   13   17 1
    28   13   14 1
    29   13   42 1
    30   14   15 1
    31   14   43 1
    32   14   44 1
    33   15   16 1
    34   15   45 1
    35   15   46 1
    36   16   17 1
    37   16   18 1
    38   17   47 1
    39   17   48 1
    40   18   29 2
    41   18   19 1
    42   19   20 1
    43   19   21 am
    44   21   22 2
    45   21   23 1
    46   23   28 ar
    47   23   24 ar
    48   24   25 ar
    49   24   49 1
    50   25   26 ar
    51   25   50 1
    52   26   27 ar
    53   26   51 1
    54   27   28 ar
    55   27   52 1
    56   28   29 1
@<TRIPOS>MOLECULE
CHEMBL399635__2
   53    57     0     0     0
SMALL
USER_CHARGES

@<TRIPOS>ATOM
      1 C1         -0.0167    1.3792    0.0096 C.ar      1 <0>        -0.1021
      2 C2          1.1683    2.0931    0.0021 C.ar      1 <0>        -0.1152
      3 C3          2.3774    1.4286   -0.0134 C.ar      1 <0>        -0.1016
      4 C4          2.4032    0.0335   -0.0212 C.ar      1 <0>        -0.0846
      5 C5          1.2045   -0.6806   -0.0131 C.ar      1 <0>        -0.1007
      6 C6          0.0021   -0.0041    0.0020 C.ar      1 <0>        -0.1149
      7 C7          3.6950   -0.6848   -0.0384 C.2       1 <0>        -0.0446
      8 C8          4.4943   -0.5772    1.0009 C.2       1 <0>        -0.1878
      9 C9          5.8233   -1.2710    1.0843 C.3       1 <0>         0.0326
     10 N1          6.2689   -1.6856   -0.2511 N.4       1 <0>        -0.3800
     11 C10         5.1971   -2.4623   -0.8938 C.3       1 <0>        -0.0040
     12 C11         4.0456   -1.5174   -1.2408 C.3       1 <0>        -0.1128
     13 C12         7.4741   -2.5169   -0.1311 C.3       1 <0>         0.0075
     14 C13         8.0625   -2.8360   -1.5309 C.3       1 <0>        -0.1444
     15 C14         9.5569   -3.0671   -1.1948 C.3       1 <0>         0.1021
     16 N2          9.8624   -2.0850   -0.1386 N.pl3     1 <0>        -0.6112
     17 C15         8.6135   -1.7312    0.5518 C.3       1 <0>         0.1214
     18 C16        11.1065   -1.5846    0.1526 C.2       1 <0>         0.6505
     19 N3         12.1691   -2.0127   -0.5886 N.am      1 <0>        -0.6651
     20 H1         12.0305   -2.6562   -1.3011 H         1 <0>         0.4122
     21 C17        13.4146   -1.5467   -0.3383 C.2       1 <0>         0.5664
     22 O1         14.3712   -1.9195   -0.9923 O.2       1 <0>        -0.4955
     23 C18        13.5696   -0.5738    0.7516 C.ar      1 <0>        -0.2217
     24 C19        14.8106   -0.0343    1.0872 C.ar      1 <0>        -0.0301
     25 C20        14.8980    0.8684    2.1108 C.ar      1 <0>        -0.1460
     26 C21        13.7655    1.2521    2.8176 C.ar      1 <0>        -0.0587
     27 C22        12.5372    0.7387    2.5099 C.ar      1 <0>        -0.1250
     28 C23        12.4150   -0.1857    1.4685 C.ar      1 <0>         0.1920
     29 N4         11.2171   -0.7149    1.1251 N.2       1 <0>        -0.5765
     30 H2         -0.9604    1.9041    0.0260 H         1 <0>         0.1299
     31 H3          1.1469    3.1729    0.0082 H         1 <0>         0.1302
     32 H4          3.3018    1.9870   -0.0200 H         1 <0>         0.1239
     33 H5          1.2178   -1.7605   -0.0194 H         1 <0>         0.1244
     34 H6         -0.9265   -0.5556    0.0079 H         1 <0>         0.1304
     35 H7          4.1807    0.0380    1.8312 H         1 <0>         0.1531
     36 H8          6.5585   -0.5912    1.5147 H         1 <0>         0.1428
     37 H9          5.7318   -2.1497    1.7228 H         1 <0>         0.1424
     38 H10         5.5771   -2.9272   -1.8035 H         1 <0>         0.1382
     39 H11         4.8408   -3.2312   -0.2083 H         1 <0>         0.1361
     40 H12         3.1757   -2.0990   -1.5459 H         1 <0>         0.1270
     41 H13         4.3502   -0.8642   -2.0585 H         1 <0>         0.1075
     42 H14         7.2557   -3.4336    0.4166 H         1 <0>         0.1616
     43 H15         7.6120   -3.7367   -1.9479 H         1 <0>         0.1217
     44 H16         7.9405   -1.9906   -2.2080 H         1 <0>         0.1036
     45 H17         9.7104   -4.0812   -0.8258 H         1 <0>         0.0950
     46 H18        10.1759   -2.8843   -2.0732 H         1 <0>         0.0973
     47 H19         8.4309   -0.6604    0.4622 H         1 <0>         0.0915
     48 H20         8.6788   -2.0116    1.6031 H         1 <0>         0.1077
     49 H21        15.6963   -0.3273    0.5431 H         1 <0>         0.1387
     50 H22        15.8584    1.2873    2.3728 H         1 <0>         0.1357
     51 H23        13.8573    1.9664    3.6224 H         1 <0>         0.1361
     52 H24        11.6651    1.0460    3.0680 H         1 <0>         0.1371
     53 H25         6.4742   -0.8691   -0.8071 H         1 <0>         0.4258
@<TRIPOS>BOND
     1    1    6 ar
     2    1    2 ar
     3    1   30 1
     4    2    3 ar
     5    2   31 1
     6    3    4 ar
     7    3   32 1
     8    4    5 ar
     9    4    7 1
    10    5    6 ar
    11    5   33 1
    12    6   34 1
    13    7   12 1
    14    7    8 2
    15    8    9 1
    16    8   35 1
    17    9   10 1
    18    9   36 1
    19    9   37 1
    20   10   11 1
    21   10   13 1
    22   10   53 1
    23   11   12 1
    24   11   38 1
    25   11   39 1
    26   12   40 1
    27   12   41 1
    28   13   17 1
    29   13   14 1
    30   13   42 1
    31   14   15 1
    32   14   43 1
    33   14   44 1
    34   15   16 1
    35   15   45 1
    36   15   46 1
    37   16   17 1
    38   16   18 1
    39   17   47 1
    40   17   48 1
    41   18   29 2
    42   18   19 1
    43   19   20 1
    44   19   21 am
    45   21   22 2
    46   21   23 1
    47   23   28 ar
    48   23   24 ar
    49   24   25 ar
    50   24   49 1
    51   25   26 ar
    52   25   50 1
    53   26   27 ar
    54   26   51 1
    55   27   28 ar
    56   27   52 1
    57   28   29 1
@<TRIPOS>MOLECULE
CHEMBL399635__3
   52    56     0     0     0
SMALL
USER_CHARGES

@<TRIPOS>ATOM
      1 C1         -0.0167    1.3792    0.0096 C.ar      1 <0>        -0.1206
      2 C2          1.1683    2.0931    0.0021 C.ar      1 <0>        -0.1187
      3 C3          2.3774    1.4286   -0.0134 C.ar      1 <0>        -0.1075
      4 C4          2.4032    0.0335   -0.0212 C.ar      1 <0>        -0.0534
      5 C5          1.2045   -0.6806   -0.0131 C.ar      1 <0>        -0.1094
      6 C6          0.0021   -0.0041    0.0020 C.ar      1 <0>        -0.1191
      7 C7          3.6950   -0.6848   -0.0384 C.2       1 <0>        -0.0755
      8 C8          4.4914   -0.5751    1.0019 C.2       1 <0>        -0.1446
      9 C9          5.8211   -1.2671    1.0922 C.3       1 <0>         0.0811
     10 N1          6.2564   -1.7073   -0.2392 N.3       1 <0>        -0.5214
     11 C10         5.1852   -2.4719   -0.8990 C.3       1 <0>         0.0529
     12 C11         4.0418   -1.5160   -1.2421 C.3       1 <0>        -0.0733
     13 C12         7.4919   -2.4975   -0.1546 C.3       1 <0>         0.0676
     14 C13         8.0882   -2.7369   -1.5669 C.3       1 <0>        -0.1209
     15 C14         9.5910   -2.9260   -1.2420 C.3       1 <0>         0.0996
     16 N2          9.8625   -1.9774   -0.1466 N.pl3     1 <0>        -0.6001
     17 C15         8.6030   -1.6988    0.5589 C.3       1 <0>         0.1362
     18 C16        11.0879   -1.4436    0.1637 C.2       1 <0>         0.6567
     19 N3         12.1638   -1.8013   -0.5955 N.am      1 <0>        -0.6669
     20 H1         12.0474   -2.4197   -1.3336 H         1 <0>         0.4115
     21 C17        13.3919   -1.3000   -0.3274 C.2       1 <0>         0.5686
     22 O1         14.3600   -1.6100   -0.9970 O.2       1 <0>        -0.5106
     23 C18        13.5134   -0.3676    0.8014 C.ar      1 <0>        -0.2353
     24 C19        14.7344    0.2033    1.1577 C.ar      1 <0>        -0.0275
     25 C20        14.7909    1.0659    2.2174 C.ar      1 <0>        -0.1617
     26 C21        13.6467    1.3780    2.9404 C.ar      1 <0>        -0.0595
     27 C22        12.4375    0.8325    2.6131 C.ar      1 <0>        -0.1322
     28 C23        12.3471   -0.0523    1.5347 C.ar      1 <0>         0.2102
     29 N4         11.1687   -0.6110    1.1710 N.2       1 <0>        -0.5861
     30 H2         -0.9604    1.9041    0.0260 H         1 <0>         0.1218
     31 H3          1.1469    3.1729    0.0082 H         1 <0>         0.1232
     32 H4          3.3018    1.9870   -0.0200 H         1 <0>         0.1230
     33 H5          1.2178   -1.7605   -0.0194 H         1 <0>         0.1212
     34 H6         -0.9265   -0.5556    0.0079 H         1 <0>         0.1229
     35 H7          4.1747    0.0418    1.8299 H         1 <0>         0.1152
     36 H8          6.5591   -0.5787    1.5040 H         1 <0>         0.0927
     37 H9          5.7334   -2.1333    1.7480 H         1 <0>         0.0506
     38 H10         5.5693   -2.9274   -1.8117 H         1 <0>         0.0828
     39 H11         4.8203   -3.2471   -0.2251 H         1 <0>         0.0413
     40 H12         3.1677   -2.0893   -1.5509 H         1 <0>         0.0778
     41 H13         4.3523   -0.8622   -2.0570 H         1 <0>         0.0835
     42 H14         7.3088   -3.4434    0.3551 H         1 <0>         0.0649
     43 H15         7.6703   -3.6359   -2.0201 H         1 <0>         0.0903
     44 H16         7.9333   -1.8696   -2.2086 H         1 <0>         0.0941
     45 H17         9.7827   -3.9480   -0.9151 H         1 <0>         0.0795
     46 H18        10.2006   -2.6846   -2.1127 H         1 <0>         0.0796
     47 H19         8.3807   -0.6327    0.5135 H         1 <0>         0.0889
     48 H20         8.6813   -2.0194    1.5977 H         1 <0>         0.0759
     49 H21        15.6290   -0.0341    0.6012 H         1 <0>         0.1337
     50 H22        15.7357    1.5091    2.4955 H         1 <0>         0.1296
     51 H23        13.7139    2.0617    3.7738 H         1 <0>         0.1311
     52 H24        11.5560    1.0842    3.1841 H         1 <0>         0.1360
@<TRIPOS>BOND
     1    1    6 ar
     2    1    2 ar
     3    1   30 1
     4    2    3 ar
     5    2   31 1
     6    3    4 ar
     7    3   32 1
     8    4    5 ar
     9    4    7 1
    10    5    6 ar
    11    5   33 1
    12    6   34 1
    13    7   12 1
    14    7    8 2
    15    8    9 1
    16    8   35 1
    17    9   10 1
    18    9   36 1
    19    9   37 1
    20   10   11 1
    21   10   13 1
    22   11   12 1
    23   11   38 1
    24   11   39 1
    25   12   40 1
    26   12   41 1
    27   13   17 1
    28   13   14 1
    29   13   42 1
    30   14   15 1
    31   14   43 1
    32   14   44 1
    33   15   16 1
    34   15   45 1
    35   15   46 1
    36   16   17 1
    37   16   18 1
    38   17   47 1
    39   17   48 1
    40   18   29 2
    41   18   19 1
    42   19   20 1
    43   19   21 am
    44   21   22 2
    45   21   23 1
    46   23   28 ar
    47   23   24 ar
    48   24   25 ar
    49   24   49 1
    50   25   26 ar
    51   25   50 1
    52   26   27 ar
    53   26   51 1
    54   27   28 ar
    55   27   52 1
    56   28   29 1
@<TRIPOS>MOLECULE
CHEMBL549642
   41    44     0     0     0
SMALL
USER_CHARGES

@<TRIPOS>ATOM
      1 C1         -0.0170    1.3951   -0.0416 C.ar      1 <0>        -0.0377
      2 C2          1.1502    2.1021   -0.0253 C.ar      1 <0>        -0.1412
      3 C3          2.3750    1.4376   -0.0252 C.ar      1 <0>         0.1244
      4 C4          2.4055    0.0280   -0.0433 C.ar      1 <0>        -0.1100
      5 C5          3.8227   -0.3460   -0.0386 C.2       1 <0>        -0.1601
      6 C6          4.5279    0.7954   -0.0189 C.2       1 <0>         0.0567
      7 N1          3.6794    1.8691   -0.0106 N.pl3     1 <0>        -0.5904
      8 H1          3.9579    2.7982    0.0031 H         1 <0>         0.4195
      9 C7          4.3812   -1.7456   -0.0524 C.3       1 <0>        -0.0462
     10 C8          4.4664   -2.2748    1.3806 C.3       1 <0>         0.0619
     11 N2          5.0109   -3.6391    1.3671 N.3       1 <0>        -0.6868
     12 C9          5.1073   -4.1809    2.7292 C.3       1 <0>         0.1416
     13 C10         5.6686   -5.5784    2.6753 C.2       1 <0>        -0.0189
     14 C11         6.9575   -5.9217    2.8340 C.2       1 <0>        -0.0503
     15 O1          7.0288   -7.2619    2.7126 O.3       1 <0>        -0.2052
     16 C12         5.7903   -7.7177    2.4827 C.2       1 <0>         0.1729
     17 N3          4.9684   -6.7072    2.4654 N.2       1 <0>        -0.4862
     18 C13         1.2147   -0.6890   -0.0600 C.ar      1 <0>         0.0087
     19 C14         0.0020   -0.0035   -0.0581 C.ar      1 <0>        -0.1683
     20 C15        -1.2534   -0.7820   -0.0721 C.2       1 <0>         0.5701
     21 O2         -2.3011   -0.2540   -0.3906 O.2       1 <0>        -0.5383
     22 N4         -1.2233   -2.0849    0.2721 N.am      1 <0>        -0.7284
     23 C16         0.0158   -2.7224    0.7095 C.3       1 <0>         0.1148
     24 C17         1.2102   -2.1940   -0.0812 C.3       1 <0>        -0.1089
     25 H2         -0.9615    1.9188   -0.0373 H         1 <0>         0.1383
     26 H3          1.1246    3.1818   -0.0128 H         1 <0>         0.1277
     27 H4          5.6061    0.8575   -0.0104 H         1 <0>         0.1736
     28 H5          3.7287   -2.3914   -0.6400 H         1 <0>         0.0725
     29 H6          5.3769   -1.7350   -0.4957 H         1 <0>         0.0820
     30 H7          5.1189   -1.6290    1.9682 H         1 <0>         0.0757
     31 H8          3.4707   -2.2853    1.8239 H         1 <0>         0.0346
     32 H9          4.4592   -4.2428    0.7761 H         1 <0>         0.3460
     33 H10         5.7643   -3.5483    3.3262 H         1 <0>         0.0893
     34 H11         4.1160   -4.2046    3.1818 H         1 <0>         0.0498
     35 H12         7.7818   -5.2499    3.0231 H         1 <0>         0.2154
     36 H13         5.5175   -8.7528    2.3396 H         1 <0>         0.2493
     37 H14        -2.0390   -2.6082    0.2289 H         1 <0>         0.4052
     38 H15         0.1693   -2.5177    1.7691 H         1 <0>         0.0666
     39 H16        -0.0637   -3.7993    0.5615 H         1 <0>         0.0904
     40 H17         1.1431   -2.5413   -1.1122 H         1 <0>         0.0902
     41 H18         2.1330   -2.5651    0.3649 H         1 <0>         0.0997
@<TRIPOS>BOND
     1    1   19 ar
     2    1    2 ar
     3    1   25 1
     4    2    3 ar
     5    2   26 1
     6    3    7 1
     7    3    4 ar
     8    4    5 1
     9    4   18 ar
    10    5    6 2
    11    5    9 1
    12    6    7 1
    13    6   27 1
    14    7    8 1
    15    9   10 1
    16    9   28 1
    17    9   29 1
    18   10   11 1
    19   10   30 1
    20   10   31 1
    21   11   12 1
    22   11   32 1
    23   12   13 1
    24   12   33 1
    25   12   34 1
    26   13   17 1
    27   13   14 2
    28   14   15 1
    29   14   35 1
    30   15   16 1
    31   16   17 2
    32   16   36 1
    33   18   24 1
    34   18   19 ar
    35   19   20 1
    36   20   21 2
    37   20   22 am
    38   22   23 1
    39   22   37 1
    40   23   24 1
    41   23   38 1
    42   23   39 1
    43   24   40 1
    44   24   41 1
@<TRIPOS>MOLECULE
CHEMBL549642__1
   42    45     0     0     0
SMALL
USER_CHARGES

@<TRIPOS>ATOM
      1 C1         -0.0170    1.3951   -0.0416 C.ar      1 <0>        -0.0349
      2 C2          1.1502    2.1021   -0.0253 C.ar      1 <0>        -0.1305
      3 C3          2.3750    1.4376   -0.0252 C.ar      1 <0>         0.1236
      4 C4          2.4055    0.0280   -0.0433 C.ar      1 <0>        -0.1054
      5 C5          3.8227   -0.3460   -0.0386 C.2       1 <0>        -0.1959
      6 C6          4.5279    0.7954   -0.0189 C.2       1 <0>         0.0875
      7 N1          3.6794    1.8691   -0.0106 N.pl3     1 <0>        -0.5839
      8 H1          3.9579    2.7982    0.0031 H         1 <0>         0.4263
      9 C7          4.3812   -1.7456   -0.0524 C.3       1 <0>        -0.0655
     10 C8          4.4664   -2.2748    1.3806 C.3       1 <0>        -0.0130
     11 N2          5.0109   -3.6391    1.3671 N.4       1 <0>        -0.5101
     12 C9          5.0927   -4.1473    2.7430 C.3       1 <0>         0.0927
     13 C10         5.6513   -5.5469    2.7292 C.2       1 <0>        -0.1011
     14 C11         6.9378   -5.8887    2.9091 C.2       1 <0>        -0.0037
     15 O1          7.0072   -7.2316    2.8215 O.3       1 <0>        -0.1861
     16 C12         5.7699   -7.6905    2.5907 C.2       1 <0>         0.2121
     17 N3          4.9507   -6.6791    2.5404 N.2       1 <0>        -0.4821
     18 C13         1.2147   -0.6890   -0.0600 C.ar      1 <0>        -0.0090
     19 C14         0.0020   -0.0035   -0.0581 C.ar      1 <0>        -0.1500
     20 C15        -1.2534   -0.7820   -0.0721 C.2       1 <0>         0.5654
     21 O2         -2.3011   -0.2540   -0.3906 O.2       1 <0>        -0.5238
     22 N4         -1.2233   -2.0849    0.2721 N.am      1 <0>        -0.7292
     23 C16         0.0158   -2.7224    0.7095 C.3       1 <0>         0.1132
     24 C17         1.2102   -2.1940   -0.0812 C.3       1 <0>        -0.1008
     25 H2         -0.9615    1.9188   -0.0373 H         1 <0>         0.1445
     26 H3          1.1246    3.1818   -0.0128 H         1 <0>         0.1340
     27 H4          5.6061    0.8575   -0.0104 H         1 <0>         0.1766
     28 H5          3.7287   -2.3914   -0.6400 H         1 <0>         0.0956
     29 H6          5.3769   -1.7350   -0.4957 H         1 <0>         0.0961
     30 H7          5.1189   -1.6290    1.9682 H         1 <0>         0.1371
     31 H8          3.4707   -2.2853    1.8239 H         1 <0>         0.1348
     32 H9          4.4069   -4.2369    0.8232 H         1 <0>         0.4316
     33 H10         5.7452   -3.5015    3.3306 H         1 <0>         0.1479
     34 H11         4.0970   -4.1578    3.1863 H         1 <0>         0.1480
     35 H12         7.7617   -5.2142    3.0896 H         1 <0>         0.2261
     36 H13         5.4962   -8.7283    2.4705 H         1 <0>         0.2625
     37 H14        -2.0390   -2.6082    0.2288 H         1 <0>         0.4098
     38 H15         0.1693   -2.5177    1.7691 H         1 <0>         0.0663
     39 H16        -0.0637   -3.7993    0.5615 H         1 <0>         0.0914
     40 H17         1.1431   -2.5413   -1.1122 H         1 <0>         0.0935
     41 H18         2.1330   -2.5651    0.3649 H         1 <0>         0.0813
     42 H19         5.9326   -3.6294    0.9568 H         1 <0>         0.4273
@<TRIPOS>BOND
     1    1   19 ar
     2    1    2 ar
     3    1   25 1
     4    2    3 ar
     5    2   26 1
     6    3    7 1
     7    3    4 ar
     8    4    5 1
     9    4   18 ar
    10    5    6 2
    11    5    9 1
    12    6    7 1
    13    6   27 1
    14    7    8 1
    15    9   10 1
    16    9   28 1
    17    9   29 1
    18   10   11 1
    19   10   30 1
    20   10   31 1
    21   11   12 1
    22   11   32 1
    23   11   42 1
    24   12   13 1
    25   12   33 1
    26   12   34 1
    27   13   17 1
    28   13   14 2
    29   14   15 1
    30   14   35 1
    31   15   16 1
    32   16   17 2
    33   16   36 1
    34   18   24 1
    35   18   19 ar
    36   19   20 1
    37   20   21 2
    38   20   22 am
    39   22   23 1
    40   22   37 1
    41   23   24 1
    42   23   38 1
    43   23   39 1
    44   24   40 1
    45   24   41 1
@<TRIPOS>MOLECULE
CHEMBL189500
   51    54     0     0     0
SMALL
USER_CHARGES

@<TRIPOS>ATOM
      1 C1         -0.0167    1.3786    0.0115 C.ar      1 <0>        -0.1564
      2 C2          0.0020   -0.0039   -0.0107 C.ar      1 <0>        -0.0709
      3 C3          1.2063   -0.6797   -0.0268 C.ar      1 <0>        -0.1864
      4 C4          2.3998    0.0311   -0.0206 C.ar      1 <0>         0.1957
      5 C5          2.3775    1.4198    0.0017 C.ar      1 <0>        -0.1875
      6 C6          1.1696    2.0892    0.0177 C.ar      1 <0>        -0.0711
      7 N1          3.6196   -0.6492   -0.0363 N.pl3     1 <0>        -0.6452
      8 C7          4.8916    0.0813   -0.1488 C.3       1 <0>         0.0992
      9 C8          5.8302   -0.4041    0.9608 C.3       1 <0>        -0.0218
     10 N2          5.9614   -1.8647    0.8855 N.4       1 <0>        -0.3808
     11 C9          4.6652   -2.4979    1.1594 C.3       1 <0>        -0.0275
     12 C10         3.6691   -2.1159    0.0654 C.3       1 <0>         0.1002
     13 C11         6.9452   -2.3180    1.8778 C.3       1 <0>        -0.0138
     14 C12         7.1756   -3.8220    1.7173 C.3       1 <0>        -0.1318
     15 C13         8.2003   -4.2941    2.7508 C.3       1 <0>        -0.0714
     16 C14         8.4272   -5.7755    2.5927 C.2       1 <0>         0.3871
     17 N3          7.7689   -6.4041    1.6669 N.2       1 <0>        -0.5186
     18 C15         7.9219   -7.7369    1.4657 C.ar      1 <0>         0.1439
     19 C16         7.2138   -8.4136    0.4704 C.ar      1 <0>        -0.1091
     20 C17         7.3998   -9.7671    0.3018 C.ar      1 <0>        -0.0695
     21 C18         8.2841  -10.4699    1.1099 C.ar      1 <0>        -0.1280
     22 C19         8.9937   -9.8246    2.0988 C.ar      1 <0>        -0.0397
     23 C20         8.8203   -8.4548    2.2857 C.ar      1 <0>        -0.1940
     24 C21         9.5500   -7.7129    3.3246 C.2       1 <0>         0.5499
     25 N4          9.3143   -6.3837    3.4227 N.am      1 <0>        -0.6535
     26 O1         10.3387   -8.2715    4.0646 O.2       1 <0>        -0.4956
     27 H1         -0.9599    1.9046    0.0194 H         1 <0>         0.1265
     28 H2         -0.9263   -0.5559   -0.0152 H         1 <0>         0.1283
     29 H3          1.2202   -1.7594   -0.0437 H         1 <0>         0.1228
     30 H4          3.3036    1.9754    0.0069 H         1 <0>         0.1223
     31 H5          1.1515    3.1689    0.0351 H         1 <0>         0.1281
     32 H6          5.3421   -0.1154   -1.1217 H         1 <0>         0.0879
     33 H7          4.7115    1.1502   -0.0347 H         1 <0>         0.1267
     34 H8          6.8104    0.0558    0.8347 H         1 <0>         0.1411
     35 H9          5.4201   -0.1256    1.9315 H         1 <0>         0.1327
     36 H10         4.7869   -3.5809    1.1798 H         1 <0>         0.1451
     37 H11         4.2903   -2.1560    2.1241 H         1 <0>         0.1325
     38 H12         2.6812   -2.4989    0.3210 H         1 <0>         0.1261
     39 H13         3.9941   -2.5382   -0.8855 H         1 <0>         0.0874
     40 H14         7.8855   -1.7881    1.7255 H         1 <0>         0.1340
     41 H15         6.5708   -2.1127    2.8807 H         1 <0>         0.1310
     42 H16         6.2353   -4.3519    1.8696 H         1 <0>         0.1003
     43 H17         7.5500   -4.0272    0.7144 H         1 <0>         0.1012
     44 H18         9.1405   -3.7642    2.5985 H         1 <0>         0.1098
     45 H19         7.8259   -4.0888    3.7537 H         1 <0>         0.1093
     46 H20         6.5231   -7.8777   -0.1639 H         1 <0>         0.1387
     47 H21         6.8511  -10.2890   -0.4683 H         1 <0>         0.1390
     48 H22         8.4163  -11.5316    0.9620 H         1 <0>         0.1394
     49 H23         9.6800  -10.3764    2.7242 H         1 <0>         0.1420
     50 H24         9.7803   -5.8613    4.0941 H         1 <0>         0.4202
     51 H25         6.2736   -2.1260   -0.0377 H         1 <0>         0.4240
@<TRIPOS>BOND
     1    1    6 ar
     2    1    2 ar
     3    1   27 1
     4    2    3 ar
     5    2   28 1
     6    3    4 ar
     7    3   29 1
     8    4    5 ar
     9    4    7 1
    10    5    6 ar
    11    5   30 1
    12    6   31 1
    13    7   12 1
    14    7    8 1
    15    8    9 1
    16    8   32 1
    17    8   33 1
    18    9   10 1
    19    9   34 1
    20    9   35 1
    21   10   11 1
    22   10   13 1
    23   10   51 1
    24   11   12 1
    25   11   36 1
    26   11   37 1
    27   12   38 1
    28   12   39 1
    29   13   14 1
    30   13   40 1
    31   13   41 1
    32   14   15 1
    33   14   42 1
    34   14   43 1
    35   15   44 1
    36   15   45 1
    37   15   16 1
    38   16   17 2
    39   16   25 1
    40   17   18 1
    41   18   23 ar
    42   18   19 ar
    43   19   20 ar
    44   19   46 1
    45   20   21 ar
    46   20   47 1
    47   21   22 ar
    48   21   48 1
    49   22   23 ar
    50   22   49 1
    51   23   24 1
    52   24   26 2
    53   24   25 am
    54   25   50 1
@<TRIPOS>MOLECULE
CHEMBL189500__1
   50    53     0     0     0
SMALL
USER_CHARGES

@<TRIPOS>ATOM
      1 C1         -0.0167    1.3786    0.0096 C.ar      1 <0>        -0.1819
      2 C2          1.1696    2.0893    0.0168 C.ar      1 <0>        -0.0710
      3 C3          2.3775    1.4198    0.0017 C.ar      1 <0>        -0.2022
      4 C4          2.3998    0.0311   -0.0206 C.ar      1 <0>         0.2204
      5 C5          1.2063   -0.6796   -0.0277 C.ar      1 <0>        -0.2013
      6 C6          0.0020   -0.0039   -0.0126 C.ar      1 <0>        -0.0708
      7 N1          3.6196   -0.6492   -0.0363 N.pl3     1 <0>        -0.6315
      8 C7          4.8906    0.0825   -0.1489 C.3       1 <0>         0.1254
      9 C8          5.8239   -0.3878    0.9718 C.3       1 <0>         0.0401
     10 N2          5.9432   -1.8512    0.9235 N.3       1 <0>        -0.5342
     11 C9          4.6488   -2.4998    1.1718 C.3       1 <0>         0.0368
     12 C10         3.6676   -2.1156    0.0654 C.3       1 <0>         0.1258
     13 C11         6.9609   -2.3278    1.8696 C.3       1 <0>         0.0524
     14 C12         7.2350   -3.8121    1.6188 C.3       1 <0>        -0.0975
     15 C13         8.2949   -4.3085    2.6042 C.3       1 <0>        -0.0782
     16 C14         8.5649   -5.7704    2.3572 C.2       1 <0>         0.3970
     17 N3          7.9078   -6.3665    1.4092 N.2       1 <0>        -0.5117
     18 C15         8.0983   -7.6801    1.1291 C.ar      1 <0>         0.1545
     19 C16         7.3915   -8.3218    0.1100 C.ar      1 <0>        -0.1100
     20 C17         7.6164   -9.6569   -0.1395 C.ar      1 <0>        -0.0714
     21 C18         8.5387  -10.3753    0.6103 C.ar      1 <0>        -0.1383
     22 C19         9.2478   -9.7645    1.6212 C.ar      1 <0>        -0.0409
     23 C20         9.0354   -8.4138    1.8896 C.ar      1 <0>        -0.2018
     24 C21         9.7627   -7.7088    2.9556 C.2       1 <0>         0.5509
     25 N4          9.4874   -6.3957    3.1342 N.am      1 <0>        -0.6540
     26 O1         10.5835   -8.2826    3.6474 O.2       1 <0>        -0.5098
     27 H1         -0.9598    1.9045    0.0260 H         1 <0>         0.1172
     28 H2          1.1515    3.1690    0.0338 H         1 <0>         0.1197
     29 H3          3.3036    1.9754    0.0070 H         1 <0>         0.1208
     30 H4          1.2202   -1.7594   -0.0454 H         1 <0>         0.1209
     31 H5         -0.9263   -0.5558   -0.0182 H         1 <0>         0.1199
     32 H6          5.3474   -0.1241   -1.1168 H         1 <0>         0.0704
     33 H7          4.7074    1.1522   -0.0481 H         1 <0>         0.0862
     34 H8          6.8078    0.0619    0.8384 H         1 <0>         0.0859
     35 H9          5.4142   -0.0879    1.9362 H         1 <0>         0.0380
     36 H10         4.7804   -3.5818    1.1834 H         1 <0>         0.0920
     37 H11         4.2554   -2.1704    2.1334 H         1 <0>         0.0367
     38 H12         2.6762   -2.4985    0.3078 H         1 <0>         0.0852
     39 H13         4.0046   -2.5375   -0.8814 H         1 <0>         0.0700
     40 H14         7.8808   -1.7599    1.7304 H         1 <0>         0.0771
     41 H15         6.6009   -2.1921    2.8894 H         1 <0>         0.0344
     42 H16         6.3151   -4.3800    1.7580 H         1 <0>         0.0761
     43 H17         7.5950   -3.9478    0.5990 H         1 <0>         0.0861
     44 H18         9.2148   -3.7406    2.4650 H         1 <0>         0.1011
     45 H19         7.9349   -4.1728    3.6240 H         1 <0>         0.0984
     46 H20         6.6716   -7.7735   -0.4795 H         1 <0>         0.1408
     47 H21         7.0687  -10.1518   -0.9278 H         1 <0>         0.1357
     48 H22         8.7010  -11.4220    0.3993 H         1 <0>         0.1345
     49 H23         9.9637  -10.3283    2.2010 H         1 <0>         0.1379
     50 H24         9.9506   -5.8973    3.8256 H         1 <0>         0.4188
@<TRIPOS>BOND
     1    1    6 ar
     2    1    2 ar
     3    1   27 1
     4    2    3 ar
     5    2   28 1
     6    3    4 ar
     7    3   29 1
     8    4    5 ar
     9    4    7 1
    10    5    6 ar
    11    5   30 1
    12    6   31 1
    13    7   12 1
    14    7    8 1
    15    8    9 1
    16    8   32 1
    17    8   33 1
    18    9   10 1
    19    9   34 1
    20    9   35 1
    21   10   11 1
    22   10   13 1
    23   11   12 1
    24   11   36 1
    25   11   37 1
    26   12   38 1
    27   12   39 1
    28   13   14 1
    29   13   40 1
    30   13   41 1
    31   14   15 1
    32   14   42 1
    33   14   43 1
    34   15   44 1
    35   15   45 1
    36   15   16 1
    37   16   17 2
    38   16   25 1
    39   17   18 1
    40   18   23 ar
    41   18   19 ar
    42   19   20 ar
    43   19   46 1
    44   20   21 ar
    45   20   47 1
    46   21   22 ar
    47   21   48 1
    48   22   23 ar
    49   22   49 1
    50   23   24 1
    51   24   26 2
    52   24   25 am
    53   25   50 1
@<TRIPOS>MOLECULE
CHEMBL571234
   38    41     0     0     0
SMALL
USER_CHARGES

@<TRIPOS>ATOM
      1 C1         -0.0163    1.3512    0.0095 C.2       1 <0>        -0.1805
      2 C2          1.3081    1.7995   -0.0008 C.2       1 <0>        -0.0701
      3 C3          2.1126    0.6813   -0.0144 C.2       1 <0>        -0.0779
      4 C4          3.5658    0.5029   -0.0288 C.2       1 <0>         0.5860
      5 O1          4.3019    1.4727   -0.0304 O.2       1 <0>        -0.4885
      6 N1          4.0837   -0.7415   -0.0400 N.am      1 <0>        -0.6557
      7 H1          5.0461   -0.8624   -0.0495 H         1 <0>         0.4245
      8 C5          3.2458   -1.8567   -0.0374 C.ar      1 <0>         0.1616
      9 C6          3.7976   -3.1323   -0.0485 C.ar      1 <0>        -0.1117
     10 C7          2.9753   -4.2410   -0.0461 C.ar      1 <0>        -0.1350
     11 C8          1.5997   -4.0887   -0.0323 C.ar      1 <0>        -0.0945
     12 C9          1.0413   -2.8259   -0.0213 C.ar      1 <0>        -0.0974
     13 C10         1.8600   -1.7046   -0.0235 C.ar      1 <0>         0.1316
     14 N2          1.2908   -0.4267   -0.0125 N.pl3     1 <0>        -0.3871
     15 C11         0.0021   -0.0041    0.0020 C.2       1 <0>         0.0335
     16 C12         3.5775   -5.6224   -0.0591 C.3       1 <0>         0.0505
     17 N3          3.7867   -6.0784    1.3215 N.4       1 <0>        -0.3943
     18 C13         2.4797   -6.3178    1.9855 C.3       1 <0>        -0.0072
     19 C14         2.8409   -7.2850    3.1408 C.3       1 <0>        -0.1457
     20 C15         3.9195   -8.1932    2.5069 C.3       1 <0>        -0.1453
     21 C16         4.4868   -7.3812    1.3278 C.3       1 <0>        -0.0090
     22 H2         -0.8981    1.9747    0.0252 H         1 <0>         0.1642
     23 H3          1.6379    2.8279    0.0013 H         1 <0>         0.1625
     24 H4          4.8704   -3.2562   -0.0593 H         1 <0>         0.1481
     25 H5          0.9614   -4.9598   -0.0306 H         1 <0>         0.1442
     26 H6         -0.0325   -2.7104   -0.0112 H         1 <0>         0.1504
     27 H7         -0.8682   -0.6436    0.0066 H         1 <0>         0.1804
     28 H8          2.9018   -6.3085   -0.5699 H         1 <0>         0.1403
     29 H9          4.5334   -5.5971   -0.5822 H         1 <0>         0.1391
     30 H10         2.0709   -5.3864    2.3771 H         1 <0>         0.1338
     31 H11         1.7782   -6.7872    1.2959 H         1 <0>         0.1341
     32 H12         3.2489   -6.7364    3.9897 H         1 <0>         0.0974
     33 H13         1.9713   -7.8700    3.4401 H         1 <0>         0.1168
     34 H14         4.7054   -8.4089    3.2306 H         1 <0>         0.1050
     35 H15         3.4707   -9.1192    2.1473 H         1 <0>         0.1043
     36 H16         4.3010   -7.9071    0.3913 H         1 <0>         0.1322
     37 H17         5.5572   -7.2269    1.4641 H         1 <0>         0.1326
     38 H18         4.3199   -5.3944    1.8373 H         1 <0>         0.4265
@<TRIPOS>BOND
     1    1   15 2
     2    1    2 1
     3    1   22 1
     4    2    3 2
     5    2   23 1
     6    3   14 1
     7    3    4 1
     8    4    5 2
     9    4    6 am
    10    6    7 1
    11    6    8 1
    12    8   13 ar
    13    8    9 ar
    14    9   10 ar
    15    9   24 1
    16   10   11 ar
    17   10   16 1
    18   11   12 ar
    19   11   25 1
    20   12   13 ar
    21   12   26 1
    22   13   14 1
    23   14   15 1
    24   15   27 1
    25   16   17 1
    26   16   28 1
    27   16   29 1
    28   17   21 1
    29   17   18 1
    30   17   38 1
    31   18   19 1
    32   18   30 1
    33   18   31 1
    34   19   20 1
    35   19   32 1
    36   19   33 1
    37   20   21 1
    38   20   34 1
    39   20   35 1
    40   21   36 1
    41   21   37 1
@<TRIPOS>MOLECULE
CHEMBL550724
   56    59     0     0     0
SMALL
USER_CHARGES

@<TRIPOS>ATOM
      1 C1         -0.1248    1.4736    0.0688 C.3       1 <0>        -0.0474
      2 N1         -0.0852    0.0052    0.0509 N.4       1 <0>        -0.3852
      3 C2         -1.4559   -0.5196    0.0404 C.3       1 <0>        -0.0058
      4 C3         -1.4209   -2.0461   -0.0600 C.3       1 <0>        -0.1442
      5 C4         -0.6643   -2.6142    1.1442 C.3       1 <0>        -0.0846
      6 C5          0.7392   -2.0031    1.1873 C.3       1 <0>        -0.1491
      7 C6          0.6241   -0.4782    1.2416 C.3       1 <0>        -0.0050
      8 C7         -0.5565   -4.1345    1.0098 C.3       1 <0>        -0.1408
      9 C8          0.0786   -4.7047    2.2518 C.2       1 <0>         0.5111
     10 O1          0.4121   -3.9677    3.1554 O.2       1 <0>        -0.5403
     11 N2          0.2760   -6.0337    2.3584 N.am      1 <0>        -0.7277
     12 C9          0.8933   -6.5880    3.5657 C.3       1 <0>         0.1196
     13 C10         1.0012   -8.1083    3.4314 C.3       1 <0>        -0.0578
     14 C11         1.6362   -8.6786    4.6734 C.2       1 <0>        -0.1709
     15 C12         0.9952   -9.1598    5.7495 C.2       1 <0>         0.0669
     16 N3          1.9018   -9.5918    6.6792 N.pl3     1 <0>        -0.5881
     17 H1          1.6751   -9.9795    7.5390 H         1 <0>         0.4221
     18 C13         3.1803   -9.3956    6.2157 C.ar      1 <0>         0.1250
     19 C14         3.0718   -8.8191    4.9335 C.ar      1 <0>        -0.1078
     20 C15         4.2209   -8.5133    4.2135 C.ar      1 <0>         0.0028
     21 C16         5.4697   -8.7824    4.7693 C.ar      1 <0>        -0.1634
     22 C17         5.5660   -9.3577    6.0408 C.ar      1 <0>        -0.0369
     23 C18         4.4399   -9.6537    6.7527 C.ar      1 <0>        -0.1370
     24 C19         6.6798   -8.4470    3.9914 C.2       1 <0>         0.5689
     25 O2          7.7523   -8.9426    4.2782 O.2       1 <0>        -0.5320
     26 N4          6.5808   -7.5854    2.9596 N.am      1 <0>        -0.7301
     27 C20         5.3123   -6.9388    2.6343 C.3       1 <0>         0.1169
     28 C21         4.1419   -7.8972    2.8425 C.3       1 <0>        -0.1069
     29 H2          0.8927    1.8645    0.0699 H         1 <0>         0.1235
     30 H3         -0.6513    1.8337   -0.8150 H         1 <0>         0.1231
     31 H4         -0.6450    1.8121    0.9648 H         1 <0>         0.1213
     32 H5         -1.9632   -0.2280    0.9601 H         1 <0>         0.1285
     33 H6         -1.9941   -0.1119   -0.8153 H         1 <0>         0.1310
     34 H7         -2.4396   -2.4339   -0.0658 H         1 <0>         0.1131
     35 H8         -0.9140   -2.3388   -0.9795 H         1 <0>         0.0896
     36 H9         -1.1987   -2.3651    2.0610 H         1 <0>         0.0978
     37 H10         1.2646   -2.3602    2.0731 H         1 <0>         0.1293
     38 H11         1.2909   -2.2949    0.2937 H         1 <0>         0.0831
     39 H12         1.6217   -0.0399    1.2726 H         1 <0>         0.1299
     40 H13         0.0725   -0.1874    2.1356 H         1 <0>         0.1288
     41 H14        -1.5521   -4.5595    0.8829 H         1 <0>         0.1050
     42 H15         0.0567   -4.3800    0.1427 H         1 <0>         0.1006
     43 H16         0.0092   -6.6231    1.6356 H         1 <0>         0.4037
     44 H17         1.8890   -6.1630    3.6927 H         1 <0>         0.0728
     45 H18         0.2802   -6.3425    4.4329 H         1 <0>         0.0723
     46 H19         0.0055   -8.5334    3.3045 H         1 <0>         0.0804
     47 H20         1.6143   -8.3539    2.5643 H         1 <0>         0.0809
     48 H21        -0.0779   -9.1997    5.8651 H         1 <0>         0.1737
     49 H22         6.5380   -9.5647    6.4636 H         1 <0>         0.1406
     50 H23         4.5253  -10.0998    7.7326 H         1 <0>         0.1303
     51 H24         7.3659   -7.3912    2.4239 H         1 <0>         0.4059
     52 H25         5.1799   -6.0672    3.2752 H         1 <0>         0.0653
     53 H26         5.3309   -6.6171    1.5930 H         1 <0>         0.0871
     54 H27         4.1801   -8.6842    2.0893 H         1 <0>         0.0898
     55 H28         3.2043   -7.3501    2.7451 H         1 <0>         0.0970
     56 H29         0.3987   -0.3071   -0.7776 H         1 <0>         0.4233
@<TRIPOS>BOND
     1    1    2 1
     2    1   29 1
     3    1   30 1
     4    1   31 1
     5    2    7 1
     6    2    3 1
     7    2   56 1
     8    3    4 1
     9    3   32 1
    10    3   33 1
    11    4    5 1
    12    4   34 1
    13    4   35 1
    14    5    6 1
    15    5    8 1
    16    5   36 1
    17    6    7 1
    18    6   37 1
    19    6   38 1
    20    7   39 1
    21    7   40 1
    22    8    9 1
    23    8   41 1
    24    8   42 1
    25    9   10 2
    26    9   11 am
    27   11   12 1
    28   11   43 1
    29   12   13 1
    30   12   44 1
    31   12   45 1
    32   13   14 1
    33   13   46 1
    34   13   47 1
    35   14   19 1
    36   14   15 2
    37   15   16 1
    38   15   48 1
    39   16   17 1
    40   16   18 1
    41   18   23 ar
    42   18   19 ar
    43   19   20 ar
    44   20   28 1
    45   20   21 ar
    46   21   22 ar
    47   21   24 1
    48   22   23 ar
    49   22   49 1
    50   23   50 1
    51   24   25 2
    52   24   26 am
    53   26   27 1
    54   26   51 1
    55   27   28 1
    56   27   52 1
    57   27   53 1
    58   28   54 1
    59   28   55 1
@<TRIPOS>MOLECULE
CHEMBL127336
   49    51     0     0     0
SMALL
USER_CHARGES

@<TRIPOS>ATOM
      1 C1         -0.0167    1.3782    0.0096 C.ar      1 <0>        -0.0891
      2 C2          1.1671    2.0904    0.0021 C.ar      1 <0>        -0.0856
      3 C3          2.3813    1.4095   -0.0126 C.ar      1 <0>        -0.0973
      4 C4          2.4002    0.0129   -0.0193 C.ar      1 <0>        -0.0800
      5 C5          1.2102   -0.6904   -0.0134 C.ar      1 <0>         0.1183
      6 C6          0.0021   -0.0041    0.0020 C.ar      1 <0>        -0.1791
      7 O1          1.2218   -2.0495   -0.0212 O.3       1 <0>        -0.3102
      8 C7         -0.0458   -2.7091   -0.0143 C.3       1 <0>         0.0579
      9 C8          0.1676   -4.2241   -0.0247 C.3       1 <0>        -0.1172
     10 C9         -1.1896   -4.9304   -0.0173 C.3       1 <0>        -0.1469
     11 C10        -0.9762   -6.4454   -0.0277 C.3       1 <0>        -0.0085
     12 N1         -2.2793   -7.1235   -0.0207 N.4       1 <0>        -0.3831
     13 C11        -2.9754   -6.8296    1.2377 C.3       1 <0>        -0.0126
     14 C12        -4.3664   -7.4668    1.2165 C.3       1 <0>        -0.1462
     15 C13        -4.2250   -8.9827    1.0515 C.3       1 <0>        -0.1400
     16 C14        -3.4329   -9.2756   -0.2259 C.3       1 <0>        -0.1466
     17 C15        -2.0765   -8.5714   -0.1512 C.3       1 <0>        -0.0067
     18 C16         3.7237   -0.7044   -0.0312 C.3       1 <0>        -0.0929
     19 C17         4.7431    0.0976   -0.8370 C.3       1 <0>         0.1120
     20 N2          4.7887    1.4872   -0.3903 N.am      1 <0>        -0.7248
     21 C18         3.6679    2.1390   -0.0211 C.2       1 <0>         0.5641
     22 O2          3.7139    3.3104    0.3002 O.2       1 <0>        -0.5247
     23 H1         -0.9603    1.9033    0.0260 H         1 <0>         0.1369
     24 H2          1.1507    3.1703    0.0074 H         1 <0>         0.1419
     25 H3         -0.9276   -0.5537    0.0078 H         1 <0>         0.1306
     26 H4         -0.5978   -2.4261    0.8819 H         1 <0>         0.0660
     27 H5         -0.6127   -2.4160   -0.8979 H         1 <0>         0.0664
     28 H6          0.7196   -4.5072   -0.9209 H         1 <0>         0.0874
     29 H7          0.7345   -4.5172    0.8590 H         1 <0>         0.0870
     30 H8         -1.7416   -4.6474    0.8789 H         1 <0>         0.0908
     31 H9         -1.7565   -4.6373   -0.9010 H         1 <0>         0.0911
     32 H10        -0.4242   -6.7284   -0.9240 H         1 <0>         0.1336
     33 H11        -0.4093   -6.7385    0.8559 H         1 <0>         0.1318
     34 H12        -2.4032   -7.2350    2.0722 H         1 <0>         0.1289
     35 H13        -3.0724   -5.7503    1.3552 H         1 <0>         0.1306
     36 H14        -4.8809   -7.2489    2.1524 H         1 <0>         0.1121
     37 H15        -4.9396   -7.0618    0.3825 H         1 <0>         0.0874
     38 H16        -3.6963   -9.3951    1.9109 H         1 <0>         0.0819
     39 H17        -5.2140   -9.4352    0.9790 H         1 <0>         0.0945
     40 H18        -3.2802  -10.3506   -0.3210 H         1 <0>         0.1126
     41 H19        -3.9867   -8.9082   -1.0899 H         1 <0>         0.0876
     42 H20        -1.5098   -8.7780   -1.0592 H         1 <0>         0.1304
     43 H21        -1.5235   -8.9397    0.7128 H         1 <0>         0.1285
     44 H22         4.0816   -0.8207    0.9918 H         1 <0>         0.0875
     45 H23         3.5981   -1.6882   -0.4833 H         1 <0>         0.0995
     46 H24         5.7290   -0.3505   -0.7136 H         1 <0>         0.0934
     47 H25         4.4677    0.0695   -1.8912 H         1 <0>         0.0690
     48 H26         5.6409    1.9495   -0.3584 H         1 <0>         0.4094
     49 H27        -2.8343   -6.7915   -0.7952 H         1 <0>         0.4223
@<TRIPOS>BOND
     1    1    6 ar
     2    1    2 ar
     3    1   23 1
     4    2    3 ar
     5    2   24 1
     6    3   21 1
     7    3    4 ar
     8    4    5 ar
     9    4   18 1
    10    5    6 ar
    11    5    7 1
    12    6   25 1
    13    7    8 1
    14    8    9 1
    15    8   26 1
    16    8   27 1
    17    9   10 1
    18    9   28 1
    19    9   29 1
    20   10   11 1
    21   10   30 1
    22   10   31 1
    23   11   12 1
    24   11   32 1
    25   11   33 1
    26   12   17 1
    27   12   13 1
    28   12   49 1
    29   13   14 1
    30   13   34 1
    31   13   35 1
    32   14   15 1
    33   14   36 1
    34   14   37 1
    35   15   16 1
    36   15   38 1
    37   15   39 1
    38   16   17 1
    39   16   40 1
    40   16   41 1
    41   17   42 1
    42   17   43 1
    43   18   19 1
    44   18   44 1
    45   18   45 1
    46   19   20 1
    47   19   46 1
    48   19   47 1
    49   20   21 am
    50   20   48 1
    51   21   22 2
@<TRIPOS>MOLECULE
CHEMBL202833
   64    68     0     0     0
SMALL
USER_CHARGES

@<TRIPOS>ATOM
      1 C1         -5.2917   -2.2841    6.3888 C.ar      1 <0>        -0.0871
      2 C2         -6.3130   -3.0414    6.9479 C.ar      1 <0>        -0.1103
      3 C3         -6.1390   -4.3861    7.1917 C.ar      1 <0>        -0.0549
      4 C4         -4.9228   -4.9878    6.8714 C.ar      1 <0>        -0.1258
      5 C5         -3.8859   -4.2137    6.3021 C.ar      1 <0>        -0.0606
      6 C6         -4.0912   -2.8529    6.0668 C.ar      1 <0>        -0.0971
      7 C7         -2.6202   -4.8714    5.9765 C.2       1 <0>         0.1410
      8 N1         -2.4679   -6.1406    6.2112 N.2       1 <0>        -0.2220
      9 N2         -3.4729   -6.9293    6.7718 N.am      1 <0>        -0.5341
     10 C8         -4.6748   -6.4155    7.1069 C.2       1 <0>         0.5287
     11 O1         -5.5376   -7.1229    7.5957 O.2       1 <0>        -0.5211
     12 C9         -1.4931   -4.0770    5.3685 C.3       1 <0>        -0.0199
     13 C10        -0.3115   -4.9819    5.1317 C.ar      1 <0>        -0.0790
     14 C11         0.6403   -5.1481    6.1223 C.ar      1 <0>        -0.0798
     15 C12         1.7277   -5.9773    5.9131 C.ar      1 <0>        -0.1219
     16 C13         1.8700   -6.6441    4.7136 C.ar      1 <0>        -0.0899
     17 C14         0.9137   -6.4809    3.7104 C.ar      1 <0>        -0.1275
     18 C15        -0.1842   -5.6472    3.9301 C.ar      1 <0>        -0.0498
     19 C16         1.0600   -7.1920    2.4224 C.2       1 <0>         0.5628
     20 O2          0.8088   -6.6193    1.3801 O.2       1 <0>        -0.5305
     21 N3          1.4719   -8.4751    2.4041 N.am      1 <0>        -0.6089
     22 C17         1.7507   -9.1537    1.1311 C.3       1 <0>         0.1113
     23 C18         0.9429  -10.4543    1.0784 C.3       1 <0>        -0.1143
     24 C19         1.2539  -11.2939    2.3195 C.3       1 <0>        -0.1064
     25 C20         0.8445  -10.5216    3.5757 C.3       1 <0>        -0.1265
     26 C21         1.6565   -9.2201    3.6569 C.3       1 <0>         0.0996
     27 C22         0.4868  -12.5895    2.2543 C.2       1 <0>         0.5179
     28 O3         -0.2371  -12.8186    1.3087 O.2       1 <0>        -0.5312
     29 N4          0.6053  -13.4934    3.2470 N.am      1 <0>        -0.7326
     30 C23        -0.1404  -14.7528    3.1836 C.3       1 <0>         0.1228
     31 C24         0.1704  -15.5925    4.4243 C.3       1 <0>        -0.0451
     32 C25        -0.5967  -16.8880    4.3592 C.2       1 <0>        -0.1456
     33 C26        -0.2240  -18.0745    3.8202 C.2       1 <0>        -0.1514
     34 C27        -1.1009  -19.1415    3.8767 C.2       1 <0>        -0.1581
     35 C28        -2.3078  -18.9697    4.4695 C.2       1 <0>        -0.1698
     36 S1         -2.2291  -17.2604    4.9788 S.3       1 <0>         0.0385
     37 H1         -5.4498   -1.2323    6.2018 H         1 <0>         0.1369
     38 H2         -7.2534   -2.5710    7.1944 H         1 <0>         0.1376
     39 H3         -6.9372   -4.9688    7.6273 H         1 <0>         0.1434
     40 H4         -3.3052   -2.2526    5.6329 H         1 <0>         0.1422
     41 H5         -1.8197   -3.6501    4.4203 H         1 <0>         0.1085
     42 H6         -1.2059   -3.2749    6.0484 H         1 <0>         0.1092
     43 H7          0.5340   -4.6279    7.0627 H         1 <0>         0.1259
     44 H8          2.4671   -6.1027    6.6903 H         1 <0>         0.1299
     45 H9          2.7198   -7.2906    4.5513 H         1 <0>         0.1292
     46 H10        -0.9300   -5.5201    3.1594 H         1 <0>         0.1285
     47 H11         1.4596   -8.5089    0.3019 H         1 <0>         0.0993
     48 H12         2.8145   -9.3813    1.0636 H         1 <0>         0.0720
     49 H13        -0.1215  -10.2207    1.0545 H         1 <0>         0.0761
     50 H14         1.2131  -11.0143    0.1831 H         1 <0>         0.0858
     51 H15         2.3224  -11.5062    2.3559 H         1 <0>         0.1020
     52 H16        -0.2190  -10.2874    3.5283 H         1 <0>         0.0761
     53 H17         1.0447  -11.1296    4.4579 H         1 <0>         0.0814
     54 H18         2.7129   -9.4530    3.7913 H         1 <0>         0.0756
     55 H19         1.3033   -8.6191    4.4949 H         1 <0>         0.1016
     56 H20         1.1843  -13.3101    4.0033 H         1 <0>         0.4010
     57 H21        -1.2090  -14.5409    3.1466 H         1 <0>         0.0719
     58 H22         0.1520  -15.3036    2.2896 H         1 <0>         0.0732
     59 H23         1.2389  -15.8044    4.4613 H         1 <0>         0.0938
     60 H24        -0.1220  -15.0417    5.3183 H         1 <0>         0.0867
     61 H25         0.7436  -18.1845    3.3532 H         1 <0>         0.1334
     62 H26        -0.8288  -20.0976    3.4546 H         1 <0>         0.1350
     63 H27        -3.1077  -19.6829    4.6027 H         1 <0>         0.1865
     64 H28        -3.3032   -7.8720    6.9247 H         1 <0>         0.4358
@<TRIPOS>BOND
     1    1    6 ar
     2    1    2 ar
     3    1   37 1
     4    2    3 ar
     5    2   38 1
     6    3    4 ar
     7    3   39 1
     8    4   10 1
     9    4    5 ar
    10    5    6 ar
    11    5    7 1
    12    6   40 1
    13    7    8 2
    14    7   12 1
    15    8    9 1
    16    9   10 am
    17    9   64 1
    18   10   11 2
    19   12   13 1
    20   12   41 1
    21   12   42 1
    22   13   18 ar
    23   13   14 ar
    24   14   15 ar
    25   14   43 1
    26   15   16 ar
    27   15   44 1
    28   16   17 ar
    29   16   45 1
    30   17   18 ar
    31   17   19 1
    32   18   46 1
    33   19   20 2
    34   19   21 am
    35   21   26 1
    36   21   22 1
    37   22   23 1
    38   22   47 1
    39   22   48 1
    40   23   24 1
    41   23   49 1
    42   23   50 1
    43   24   25 1
    44   24   27 1
    45   24   51 1
    46   25   26 1
    47   25   52 1
    48   25   53 1
    49   26   54 1
    50   26   55 1
    51   27   28 2
    52   27   29 am
    53   29   30 1
    54   29   56 1
    55   30   31 1
    56   30   57 1
    57   30   58 1
    58   31   32 1
    59   31   59 1
    60   31   60 1
    61   32   36 1
    62   32   33 2
    63   33   34 1
    64   33   61 1
    65   34   35 2
    66   34   62 1
    67   35   36 1
    68   35   63 1
@<TRIPOS>MOLECULE
CHEMBL381382
   64    68     0     0     0
SMALL
USER_CHARGES

@<TRIPOS>ATOM
      1 C1         -5.2917   -2.2841    6.3888 C.ar      1 <0>        -0.0871
      2 C2         -6.3130   -3.0414    6.9479 C.ar      1 <0>        -0.1103
      3 C3         -6.1390   -4.3861    7.1917 C.ar      1 <0>        -0.0549
      4 C4         -4.9228   -4.9878    6.8714 C.ar      1 <0>        -0.1258
      5 C5         -3.8859   -4.2137    6.3021 C.ar      1 <0>        -0.0606
      6 C6         -4.0912   -2.8529    6.0668 C.ar      1 <0>        -0.0971
      7 C7         -2.6202   -4.8714    5.9765 C.2       1 <0>         0.1411
      8 N1         -2.4679   -6.1406    6.2112 N.2       1 <0>        -0.2221
      9 N2         -3.4729   -6.9293    6.7718 N.am      1 <0>        -0.5341
     10 C8         -4.6748   -6.4155    7.1069 C.2       1 <0>         0.5287
     11 O1         -5.5376   -7.1229    7.5957 O.2       1 <0>        -0.5213
     12 C9         -1.4931   -4.0770    5.3685 C.3       1 <0>        -0.0199
     13 C10        -0.3115   -4.9819    5.1317 C.ar      1 <0>        -0.0791
     14 C11         0.6403   -5.1481    6.1223 C.ar      1 <0>        -0.0798
     15 C12         1.7277   -5.9773    5.9131 C.ar      1 <0>        -0.1219
     16 C13         1.8700   -6.6441    4.7136 C.ar      1 <0>        -0.0899
     17 C14         0.9137   -6.4809    3.7104 C.ar      1 <0>        -0.1273
     18 C15        -0.1842   -5.6472    3.9301 C.ar      1 <0>        -0.0498
     19 C16         1.0600   -7.1920    2.4224 C.2       1 <0>         0.5627
     20 O2          0.8088   -6.6193    1.3801 O.2       1 <0>        -0.5307
     21 N3          1.4719   -8.4751    2.4041 N.am      1 <0>        -0.6086
     22 C17         1.7507   -9.1537    1.1311 C.3       1 <0>         0.1112
     23 C18         0.9429  -10.4543    1.0784 C.3       1 <0>        -0.1137
     24 C19         1.2539  -11.2939    2.3195 C.3       1 <0>        -0.1074
     25 C20         0.8445  -10.5216    3.5757 C.3       1 <0>        -0.1256
     26 C21         1.6565   -9.2201    3.6569 C.3       1 <0>         0.0998
     27 C22         0.4868  -12.5895    2.2543 C.2       1 <0>         0.5173
     28 O3         -0.2371  -12.8186    1.3087 O.2       1 <0>        -0.5338
     29 N4          0.6053  -13.4934    3.2470 N.am      1 <0>        -0.7255
     30 C23        -0.1404  -14.7528    3.1836 C.3       1 <0>         0.1385
     31 C24        -1.5384  -14.5713    3.8101 C.3       1 <0>        -0.1345
     32 C25        -1.8040  -15.9109    4.5409 C.3       1 <0>        -0.1257
     33 C26        -0.4109  -16.2689    5.1155 C.3       1 <0>        -0.1246
     34 C27         0.5765  -15.8322    4.0136 C.3       1 <0>        -0.1315
     35 H1         -5.4498   -1.2323    6.2018 H         1 <0>         0.1369
     36 H2         -7.2534   -2.5710    7.1944 H         1 <0>         0.1376
     37 H3         -6.9372   -4.9688    7.6273 H         1 <0>         0.1434
     38 H4         -3.3052   -2.2526    5.6329 H         1 <0>         0.1422
     39 H5         -1.8197   -3.6501    4.4203 H         1 <0>         0.1085
     40 H6         -1.2059   -3.2749    6.0484 H         1 <0>         0.1093
     41 H7          0.5340   -4.6279    7.0627 H         1 <0>         0.1259
     42 H8          2.4671   -6.1027    6.6903 H         1 <0>         0.1298
     43 H9          2.7198   -7.2906    4.5513 H         1 <0>         0.1292
     44 H10        -0.9300   -5.5201    3.1594 H         1 <0>         0.1285
     45 H11         1.4596   -8.5089    0.3019 H         1 <0>         0.0991
     46 H12         2.8145   -9.3813    1.0636 H         1 <0>         0.0718
     47 H13        -0.1215  -10.2207    1.0545 H         1 <0>         0.0757
     48 H14         1.2131  -11.0143    0.1831 H         1 <0>         0.0854
     49 H15         2.3224  -11.5062    2.3559 H         1 <0>         0.1006
     50 H16        -0.2190  -10.2874    3.5283 H         1 <0>         0.0755
     51 H17         1.0447  -11.1296    4.4579 H         1 <0>         0.0807
     52 H18         2.7129   -9.4530    3.7913 H         1 <0>         0.0752
     53 H19         1.3033   -8.6191    4.4949 H         1 <0>         0.1013
     54 H20         1.1843  -13.3101    4.0033 H         1 <0>         0.3988
     55 H21        -0.2341  -15.0792    2.1479 H         1 <0>         0.0912
     56 H22        -1.5339  -13.7440    4.5198 H         1 <0>         0.0691
     57 H23        -2.2856  -14.4054    3.0341 H         1 <0>         0.0702
     58 H24        -2.5297  -15.7761    5.3429 H         1 <0>         0.0695
     59 H25        -2.1399  -16.6739    3.8387 H         1 <0>         0.0699
     60 H26        -0.2243  -15.7157    6.0360 H         1 <0>         0.0670
     61 H27        -0.3353  -17.3418    5.2921 H         1 <0>         0.0692
     62 H28         0.8299  -16.6828    3.3808 H         1 <0>         0.0752
     63 H29         1.4792  -15.4189    4.4635 H         1 <0>         0.0707
     64 H30        -3.3032   -7.8720    6.9247 H         1 <0>         0.4357
@<TRIPOS>BOND
     1    1    6 ar
     2    1    2 ar
     3    1   35 1
     4    2    3 ar
     5    2   36 1
     6    3    4 ar
     7    3   37 1
     8    4   10 1
     9    4    5 ar
    10    5    6 ar
    11    5    7 1
    12    6   38 1
    13    7    8 2
    14    7   12 1
    15    8    9 1
    16    9   10 am
    17    9   64 1
    18   10   11 2
    19   12   13 1
    20   12   39 1
    21   12   40 1
    22   13   18 ar
    23   13   14 ar
    24   14   15 ar
    25   14   41 1
    26   15   16 ar
    27   15   42 1
    28   16   17 ar
    29   16   43 1
    30   17   18 ar
    31   17   19 1
    32   18   44 1
    33   19   20 2
    34   19   21 am
    35   21   26 1
    36   21   22 1
    37   22   23 1
    38   22   45 1
    39   22   46 1
    40   23   24 1
    41   23   47 1
    42   23   48 1
    43   24   25 1
    44   24   27 1
    45   24   49 1
    46   25   26 1
    47   25   50 1
    48   25   51 1
    49   26   52 1
    50   26   53 1
    51   27   28 2
    52   27   29 am
    53   29   30 1
    54   29   54 1
    55   30   34 1
    56   30   31 1
    57   30   55 1
    58   31   32 1
    59   31   56 1
    60   31   57 1
    61   32   33 1
    62   32   58 1
    63   32   59 1
    64   33   34 1
    65   33   60 1
    66   33   61 1
    67   34   62 1
    68   34   63 1
@<TRIPOS>MOLECULE
CHEMBL576423
   38    41     0     0     0
SMALL
USER_CHARGES

@<TRIPOS>ATOM
      1 C1         -0.0167    1.3798    0.0096 C.ar      1 <0>        -0.0716
      2 C2          1.1937    2.0588    0.0017 C.ar      1 <0>        -0.1721
      3 C3          2.3747    1.3397   -0.0134 C.ar      1 <0>         0.1053
      4 N1          2.3646    0.0224   -0.0204 N.ar      1 <0>        -0.4776
      5 C4          1.2294   -0.6645   -0.0132 C.ar      1 <0>         0.1615
      6 C5          0.0021   -0.0041    0.0020 C.ar      1 <0>        -0.1596
      7 C6          1.2667   -2.1466   -0.0221 C.ar      1 <0>        -0.0311
      8 C7          0.0763   -2.8739   -0.0204 C.ar      1 <0>        -0.1005
      9 C8          0.1099   -4.2504   -0.0285 C.ar      1 <0>        -0.0659
     10 C9          1.3365   -4.9184   -0.0385 C.ar      1 <0>        -0.0240
     11 C10         2.5279   -4.1894   -0.0402 C.ar      1 <0>        -0.1045
     12 C11         2.4922   -2.8130   -0.0378 C.ar      1 <0>        -0.0790
     13 C12         1.3737   -6.3957   -0.0468 C.2       1 <0>         0.3294
     14 N2          2.5114   -7.1548   -0.0514 N.pl3     1 <0>        -0.5926
     15 H1          3.4240   -6.8261   -0.0501 H         1 <0>         0.4257
     16 C13         2.1148   -8.4786   -0.0582 C.ar      1 <0>         0.0405
     17 C14         2.7977   -9.6859   -0.0645 C.ar      1 <0>        -0.0789
     18 C15         2.1006  -10.8786   -0.0705 C.ar      1 <0>        -0.1127
     19 C16         0.7180  -10.8876   -0.0699 C.ar      1 <0>        -0.0853
     20 C17         0.0063   -9.6907   -0.0637 C.ar      1 <0>        -0.0905
     21 C18         0.7087   -8.4653   -0.0575 C.ar      1 <0>         0.1059
     22 N3          0.3198   -7.1784   -0.0452 N.2       1 <0>        -0.4527
     23 C19        -1.4673   -9.7024   -0.0641 C.2       1 <0>         0.5579
     24 O1         -2.0837   -8.6541   -0.0586 O.2       1 <0>        -0.5112
     25 N4         -2.1318  -10.8749   -0.0705 N.am      1 <0>        -0.8552
     26 H2         -0.9522    1.9191    0.0259 H         1 <0>         0.1387
     27 H3          1.2130    3.1386    0.0070 H         1 <0>         0.1378
     28 H4          3.3182    1.8652   -0.0200 H         1 <0>         0.1599
     29 H5         -0.9212   -0.5643    0.0082 H         1 <0>         0.1400
     30 H6         -0.8720   -2.3572   -0.0123 H         1 <0>         0.1366
     31 H7         -0.8118   -4.8133   -0.0269 H         1 <0>         0.1478
     32 H8          3.4768   -4.7051   -0.0476 H         1 <0>         0.1245
     33 H9          3.4133   -2.2491   -0.0439 H         1 <0>         0.1429
     34 H10         3.8777   -9.6935   -0.0650 H         1 <0>         0.1306
     35 H11         2.6412  -11.8136   -0.0761 H         1 <0>         0.1402
     36 H12         0.1870  -11.8281   -0.0747 H         1 <0>         0.1357
     37 H13        -1.6402  -11.7111   -0.0748 H         1 <0>         0.3985
     38 H14        -3.1018  -10.8826   -0.0707 H         1 <0>         0.4054
@<TRIPOS>BOND
     1    1    6 ar
     2    1    2 ar
     3    1   26 1
     4    2    3 ar
     5    2   27 1
     6    3    4 ar
     7    3   28 1
     8    4    5 ar
     9    5    6 ar
    10    5    7 1
    11    6   29 1
    12    7   12 ar
    13    7    8 ar
    14    8    9 ar
    15    8   30 1
    16    9   10 ar
    17    9   31 1
    18   10   11 ar
    19   10   13 1
    20   11   12 ar
    21   11   32 1
    22   12   33 1
    23   13   22 2
    24   13   14 1
    25   14   15 1
    26   14   16 1
    27   16   21 ar
    28   16   17 ar
    29   17   18 ar
    30   17   34 1
    31   18   19 ar
    32   18   35 1
    33   19   20 ar
    34   19   36 1
    35   20   21 ar
    36   20   23 1
    37   21   22 1
    38   23   24 2
    39   23   25 am
    40   25   37 1
    41   25   38 1
@<TRIPOS>MOLECULE
CHEMBL578559
   34    37     0     0     0
SMALL
USER_CHARGES

@<TRIPOS>ATOM
      1 C1         -0.0167    1.3773    0.0096 C.ar      1 <0>        -0.1200
      2 C2          1.1628    2.0989    0.0022 C.ar      1 <0>        -0.0877
      3 C3          2.3902    1.4413   -0.0130 C.ar      1 <0>        -0.0929
      4 C4          2.4212    0.0292   -0.0209 C.ar      1 <0>         0.1099
      5 C5          1.2102   -0.6855   -0.0132 C.ar      1 <0>         0.0359
      6 C6          0.0021   -0.0041    0.0020 C.ar      1 <0>        -0.0775
      7 N1          1.5541   -2.0238   -0.0237 N.pl3     1 <0>        -0.5943
      8 H1          0.9422   -2.7765   -0.0219 H         1 <0>         0.4257
      9 C7          2.9201   -2.0864   -0.0371 C.2       1 <0>         0.3473
     10 N2          3.4186   -0.8721   -0.0353 N.2       1 <0>        -0.4589
     11 C8          3.7148   -3.3325   -0.0507 C.ar      1 <0>        -0.0410
     12 C9          3.0710   -4.5719   -0.0562 C.ar      1 <0>        -0.1044
     13 C10         3.8124   -5.7323   -0.0687 C.ar      1 <0>        -0.0883
     14 C11         5.2055   -5.6702   -0.0760 C.ar      1 <0>         0.0243
     15 C12         5.8495   -4.4332   -0.0701 C.ar      1 <0>        -0.0736
     16 C13         5.1100   -3.2715   -0.0637 C.ar      1 <0>        -0.0675
     17 C14         6.0032   -6.9210   -0.0896 C.2       1 <0>         0.2850
     18 N3          7.3454   -6.9938   -0.0921 N.2       1 <0>        -0.6411
     19 C15         7.7245   -8.2478   -0.1052 C.2       1 <0>         0.5122
     20 O1          9.0016   -8.6879   -0.1109 O.3       1 <0>        -0.6490
     21 O2          6.6272   -9.0202   -0.1113 O.3       1 <0>        -0.1815
     22 N4          5.5155   -8.1376   -0.0953 N.2       1 <0>        -0.4095
     23 C16         3.6461    2.2121   -0.0214 C.2       1 <0>         0.5562
     24 O3          4.7151    1.6326   -0.0347 O.2       1 <0>        -0.5063
     25 N5          3.6099    3.5594   -0.0142 N.am      1 <0>        -0.8576
     26 H2         -0.9622    1.8989    0.0260 H         1 <0>         0.1368
     27 H3          1.1320    3.1784    0.0080 H         1 <0>         0.1327
     28 H4         -0.9267   -0.5551    0.0083 H         1 <0>         0.1283
     29 H5          1.9921   -4.6202   -0.0502 H         1 <0>         0.1220
     30 H6          3.3147   -6.6908   -0.0726 H         1 <0>         0.1388
     31 H7          6.9284   -4.3862   -0.0750 H         1 <0>         0.1493
     32 H8          5.6088   -2.3136   -0.0640 H         1 <0>         0.1459
     33 H9          2.7572    4.0216   -0.0036 H         1 <0>         0.3970
     34 H10         4.4366    4.0668   -0.0197 H         1 <0>         0.4039
@<TRIPOS>BOND
     1    1    6 ar
     2    1    2 ar
     3    1   26 1
     4    2    3 ar
     5    2   27 1
     6    3    4 ar
     7    3   23 1
     8    4   10 1
     9    4    5 ar
    10    5    6 ar
    11    5    7 1
    12    6   28 1
    13    7    8 1
    14    7    9 1
    15    9   10 2
    16    9   11 1
    17   11   16 ar
    18   11   12 ar
    19   12   13 ar
    20   12   29 1
    21   13   14 ar
    22   13   30 1
    23   14   15 ar
    24   14   17 1
    25   15   16 ar
    26   15   31 1
    27   16   32 1
    28   17   22 2
    29   17   18 1
    30   18   19 2
    31   19   20 1
    32   19   21 1
    33   21   22 1
    34   23   24 2
    35   23   25 am
    36   25   33 1
    37   25   34 1
@<TRIPOS>MOLECULE
CHEMBL567400
   33    36     0     0     0
SMALL
USER_CHARGES

@<TRIPOS>ATOM
      1 C1         -0.0167    1.3773    0.0096 C.ar      1 <0>        -0.1238
      2 C2          1.1628    2.0989    0.0022 C.ar      1 <0>        -0.0879
      3 C3          2.3902    1.4413   -0.0135 C.ar      1 <0>        -0.0963
      4 C4          2.4212    0.0292   -0.0214 C.ar      1 <0>         0.1127
      5 C5          1.2102   -0.6855   -0.0132 C.ar      1 <0>         0.0326
      6 C6          0.0021   -0.0041    0.0020 C.ar      1 <0>        -0.0766
      7 N1          1.5540   -2.0238   -0.0238 N.pl3     1 <0>        -0.5966
      8 H1          0.9422   -2.7765   -0.0218 H         1 <0>         0.4251
      9 C7          2.9202   -2.0864   -0.0377 C.2       1 <0>         0.3579
     10 N2          3.4186   -0.8720   -0.0362 N.2       1 <0>        -0.4664
     11 C8          3.7147   -3.3324   -0.0519 C.ar      1 <0>        -0.0700
     12 C9          3.0705   -4.5718   -0.0575 C.ar      1 <0>        -0.0951
     13 C10         3.8110   -5.7322   -0.0712 C.ar      1 <0>        -0.1080
     14 C11         5.2057   -5.6704   -0.0794 C.ar      1 <0>         0.0769
     15 C12         5.8500   -4.4318   -0.0733 C.ar      1 <0>        -0.1087
     16 C13         5.1102   -3.2709   -0.0655 C.ar      1 <0>        -0.0578
     17 C14         6.0012   -6.9177   -0.0941 C.2       1 <0>         0.0668
     18 N3          5.5291   -8.1657   -0.1067 N.2       1 <0>        -0.3637
     19 N4          6.5423   -8.9629   -0.1174 N.2       1 <0>        -0.1885
     20 N5          7.6274   -8.2709   -0.1120 N.2       1 <0>        -0.1876
     21 N6          7.3319   -7.0161   -0.1032 N.2       1 <0>        -0.3608
     22 C15         3.6460    2.2122   -0.0223 C.2       1 <0>         0.5565
     23 O1          4.7151    1.6326   -0.0361 O.2       1 <0>        -0.5070
     24 N7          3.6099    3.5594   -0.0152 N.am      1 <0>        -0.8581
     25 H2         -0.9622    1.8989    0.0260 H         1 <0>         0.1355
     26 H3          1.1320    3.1784    0.0083 H         1 <0>         0.1315
     27 H4         -0.9268   -0.5551    0.0079 H         1 <0>         0.1272
     28 H5          1.9916   -4.6197   -0.0508 H         1 <0>         0.1162
     29 H6          3.3130   -6.6905   -0.0752 H         1 <0>         0.1361
     30 H7          6.9289   -4.3844   -0.0793 H         1 <0>         0.1382
     31 H8          5.6086   -2.3128   -0.0652 H         1 <0>         0.1396
     32 H9          2.7572    4.0217   -0.0042 H         1 <0>         0.3967
     33 H10         4.4366    4.0668   -0.0210 H         1 <0>         0.4032
@<TRIPOS>BOND
     1    1    6 ar
     2    1    2 ar
     3    1   25 1
     4    2    3 ar
     5    2   26 1
     6    3    4 ar
     7    3   22 1
     8    4   10 1
     9    4    5 ar
    10    5    6 ar
    11    5    7 1
    12    6   27 1
    13    7    8 1
    14    7    9 1
    15    9   10 2
    16    9   11 1
    17   11   16 ar
    18   11   12 ar
    19   12   13 ar
    20   12   28 1
    21   13   14 ar
    22   13   29 1
    23   14   15 ar
    24   14   17 1
    25   15   16 ar
    26   15   30 1
    27   16   31 1
    28   17   21 2
    29   17   18 1
    30   18   19 1
    31   19   20 2
    32   20   21 1
    33   22   23 2
    34   22   24 am
    35   24   32 1
    36   24   33 1
@<TRIPOS>MOLECULE
CHEMBL576910
   34    37     0     0     0
SMALL
USER_CHARGES

@<TRIPOS>ATOM
      1 C1         -0.0166    1.3740    0.0096 C.ar      1 <0>        -0.1427
      2 C2          1.1626    2.0972    0.0022 C.ar      1 <0>        -0.0649
      3 C3          2.3916    1.4387   -0.0130 C.ar      1 <0>        -0.1386
      4 C4          2.4245    0.0374   -0.0208 C.ar      1 <0>         0.1031
      5 C5          1.2213   -0.6892   -0.0132 C.ar      1 <0>         0.0447
      6 C6          0.0021   -0.0041    0.0020 C.ar      1 <0>        -0.0306
      7 N1          1.5485   -2.0046   -0.0233 N.2       1 <0>        -0.4830
      8 C7          2.8532   -2.1315   -0.0365 C.2       1 <0>         0.3487
      9 N2          3.4379   -0.8924   -0.0354 N.pl3     1 <0>        -0.5803
     10 C8          3.5828   -3.4163   -0.0498 C.ar      1 <0>        -0.0613
     11 C9          4.9799   -3.4261   -0.0569 C.ar      1 <0>        -0.0884
     12 C10         5.6572   -4.6183   -0.0693 C.ar      1 <0>        -0.0985
     13 C11         4.9498   -5.8236   -0.0744 C.ar      1 <0>         0.0714
     14 C12         3.5523   -5.8136   -0.0669 C.ar      1 <0>        -0.1153
     15 C13         2.8755   -4.6212   -0.0496 C.ar      1 <0>        -0.0559
     16 C14         5.6788   -7.1074   -0.0882 C.2       1 <0>         0.0514
     17 N3          6.9813   -7.2612   -0.0911 N.2       1 <0>        -0.2284
     18 N4          7.2623   -8.5167   -0.1042 N.2       1 <0>        -0.4133
     19 C15         6.1516   -9.2127   -0.1103 C.2       1 <0>         0.4489
     20 O1          6.0531  -10.5625   -0.1240 O.3       1 <0>        -0.6441
     21 O2          5.1276   -8.3407   -0.0945 O.3       1 <0>        -0.2835
     22 C16         3.6483    2.2113   -0.0213 C.2       1 <0>         0.5675
     23 O3          4.7176    1.6327   -0.0346 O.2       1 <0>        -0.5498
     24 N5          3.6111    3.5585   -0.0142 N.am      1 <0>        -0.8486
     25 H1         -0.9625    1.8951    0.0260 H         1 <0>         0.1371
     26 H2          1.1311    3.1767    0.0079 H         1 <0>         0.1325
     27 H3         -0.9263   -0.5558    0.0082 H         1 <0>         0.1369
     28 H4          5.5265   -2.4946   -0.0529 H         1 <0>         0.1237
     29 H5          6.7371   -4.6258   -0.0754 H         1 <0>         0.1431
     30 H6          3.0055   -6.7449   -0.0712 H         1 <0>         0.1365
     31 H7          1.7955   -4.6134   -0.0396 H         1 <0>         0.1403
     32 H8          2.7580    4.0201   -0.0037 H         1 <0>         0.4017
     33 H9          4.4374    4.0666   -0.0197 H         1 <0>         0.4059
     34 H10         4.3897   -0.7056   -0.0438 H         1 <0>         0.4340
@<TRIPOS>BOND
     1    1    6 ar
     2    1    2 ar
     3    1   25 1
     4    2    3 ar
     5    2   26 1
     6    3    4 ar
     7    3   22 1
     8    4    9 1
     9    4    5 ar
    10    5    6 ar
    11    5    7 1
    12    6   27 1
    13    7    8 2
    14    8    9 1
    15    8   10 1
    16    9   34 1
    17   10   15 ar
    18   10   11 ar
    19   11   12 ar
    20   11   28 1
    21   12   13 ar
    22   12   29 1
    23   13   14 ar
    24   13   16 1
    25   14   15 ar
    26   14   30 1
    27   15   31 1
    28   16   21 1
    29   16   17 2
    30   17   18 1
    31   18   19 2
    32   19   20 1
    33   19   21 1
    34   22   23 2
    35   22   24 am
    36   24   32 1
    37   24   33 1
@<TRIPOS>MOLECULE
CHEMBL576910__1
   34    37     0     0     0
SMALL
USER_CHARGES

@<TRIPOS>ATOM
      1 C1         -0.0167    1.3775    0.0096 C.ar      1 <0>        -0.1217
      2 C2          1.1627    2.0990    0.0022 C.ar      1 <0>        -0.0874
      3 C3          2.3902    1.4412   -0.0134 C.ar      1 <0>        -0.0950
      4 C4          2.4210    0.0291   -0.0213 C.ar      1 <0>         0.1115
      5 C5          1.2100   -0.6854   -0.0131 C.ar      1 <0>         0.0347
      6 C6          0.0021   -0.0041    0.0020 C.ar      1 <0>        -0.0769
      7 N1          1.5536   -2.0242   -0.0240 N.pl3     1 <0>        -0.5956
      8 H1          0.9416   -2.7767   -0.0221 H         1 <0>         0.4256
      9 C7          2.9200   -2.0869   -0.0382 C.2       1 <0>         0.3525
     10 N2          3.4185   -0.8721   -0.0364 N.2       1 <0>        -0.4636
     11 C8          3.7142   -3.3322   -0.0527 C.ar      1 <0>        -0.0624
     12 C9          3.0694   -4.5720   -0.0586 C.ar      1 <0>        -0.0896
     13 C10         3.8064   -5.7280   -0.0725 C.ar      1 <0>        -0.1005
     14 C11         5.2027   -5.6664   -0.0809 C.ar      1 <0>         0.0719
     15 C12         5.8475   -4.4263   -0.0751 C.ar      1 <0>        -0.1148
     16 C13         5.1102   -3.2705   -0.0665 C.ar      1 <0>        -0.0527
     17 C14         5.9965   -6.9111   -0.0955 C.2       1 <0>         0.0514
     18 N3          5.5233   -8.1342   -0.1075 N.2       1 <0>        -0.2289
     19 N4          6.5016   -8.9697   -0.1181 N.2       1 <0>        -0.4136
     20 C15         7.6364   -8.3135   -0.1132 C.2       1 <0>         0.4491
     21 O1          8.8755   -8.8577   -0.1215 O.3       1 <0>        -0.6436
     22 O2          7.3444   -7.0005   -0.1047 O.3       1 <0>        -0.2831
     23 C16         3.6460    2.2119   -0.0223 C.2       1 <0>         0.5566
     24 O3          4.7150    1.6323   -0.0359 O.2       1 <0>        -0.5074
     25 N5          3.6099    3.5592   -0.0152 N.am      1 <0>        -0.8577
     26 H2         -0.9622    1.8991    0.0260 H         1 <0>         0.1363
     27 H3          1.1319    3.1785    0.0083 H         1 <0>         0.1321
     28 H4         -0.9268   -0.5551    0.0082 H         1 <0>         0.1281
     29 H5          1.9904   -4.6196   -0.0517 H         1 <0>         0.1219
     30 H6          3.3081   -6.6862   -0.0767 H         1 <0>         0.1426
     31 H7          6.9264   -4.3786   -0.0812 H         1 <0>         0.1367
     32 H8          5.6083   -2.3122   -0.0665 H         1 <0>         0.1431
     33 H9          2.7572    4.0215   -0.0043 H         1 <0>         0.3970
     34 H10         4.4366    4.0665   -0.0210 H         1 <0>         0.4036
@<TRIPOS>BOND
     1    1    6 ar
     2    1    2 ar
     3    1   26 1
     4    2    3 ar
     5    2   27 1
     6    3    4 ar
     7    3   23 1
     8    4   10 1
     9    4    5 ar
    10    5    6 ar
    11    5    7 1
    12    6   28 1
    13    7    8 1
    14    7    9 1
    15    9   10 2
    16    9   11 1
    17   11   16 ar
    18   11   12 ar
    19   12   13 ar
    20   12   29 1
    21   13   14 ar
    22   13   30 1
    23   14   15 ar
    24   14   17 1
    25   15   16 ar
    26   15   31 1
    27   16   32 1
    28   17   22 1
    29   17   18 2
    30   18   19 1
    31   19   20 2
    32   20   21 1
    33   20   22 1
    34   23   24 2
    35   23   25 am
    36   25   33 1
    37   25   34 1
@<TRIPOS>MOLECULE
CHEMBL322133
   45    47     0     0     0
SMALL
USER_CHARGES

@<TRIPOS>ATOM
      1 C1         -0.0169    1.3947    0.0097 C.ar      1 <0>        -0.0499
      2 C2          1.1693    2.0966    0.0022 C.ar      1 <0>        -0.1027
      3 C3          2.3782    1.4203   -0.0135 C.ar      1 <0>        -0.0583
      4 C4          2.4048    0.0353   -0.0212 C.ar      1 <0>        -0.1023
      5 C5          1.2267   -0.6801   -0.0138 C.ar      1 <0>        -0.0647
      6 C6          0.0021   -0.0041    0.0020 C.ar      1 <0>        -0.1589
      7 C7         -1.2596   -0.7604    0.0105 C.2       1 <0>         0.3951
      8 O1         -2.3195   -0.1714    0.0242 O.2       1 <0>        -0.4411
      9 C8         -1.2350   -2.2672    0.0022 C.3       1 <0>         0.0725
     10 N1         -2.6080   -2.7781    0.0131 N.am      1 <0>        -0.7238
     11 C9         -2.8325   -4.1070    0.0082 C.2       1 <0>         0.5260
     12 O2         -1.8979   -4.8799   -0.0053 O.2       1 <0>        -0.5320
     13 C10        -4.2448   -4.6326    0.0194 C.3       1 <0>        -0.1630
     14 C11        -4.2198   -6.1624    0.0109 C.3       1 <0>         0.1166
     15 N2         -5.5928   -6.6733    0.0218 N.am      1 <0>        -0.5391
     16 C12        -6.2105   -6.9081    1.2403 C.2       1 <0>         0.2142
     17 C13        -7.4702   -7.3514    1.2369 C.2       1 <0>        -0.2476
     18 C14        -8.1067   -7.6125   -0.0152 C.2       1 <0>         0.5550
     19 O3         -9.2424   -8.0518   -0.0342 O.2       1 <0>        -0.5048
     20 N3         -7.4655   -7.3780   -1.1707 N.am      1 <0>        -0.6560
     21 H1         -7.9042   -7.5537   -2.0178 H         1 <0>         0.4351
     22 C15        -6.2100   -6.8924   -1.1441 C.2       1 <0>         0.6982
     23 O4         -5.6319   -6.6556   -2.1872 O.2       1 <0>        -0.5314
     24 C16        -8.3325   -7.5894    2.4514 C.3       1 <0>        -0.0103
     25 S1         -7.2984   -7.7552    3.9330 S.3       1 <0>        -0.2341
     26 C17        -6.1229   -6.3807    3.7147 C.3       1 <0>        -0.0833
     27 C18        -5.3409   -6.6449    2.4359 C.3       1 <0>        -0.1028
     28 Br1         4.0000    2.3925   -0.0250 Br        1 <0>        -0.0341
     29 H2         -0.9586    1.9232    0.0260 H         1 <0>         0.1453
     30 H3          1.1562    3.1765    0.0081 H         1 <0>         0.1429
     31 H4          3.3510   -0.4853   -0.0334 H         1 <0>         0.1438
     32 H5          1.2489   -1.7598   -0.0205 H         1 <0>         0.1449
     33 H6         -0.7241   -2.6173   -0.8948 H         1 <0>         0.1107
     34 H7         -0.7065   -2.6268    0.8850 H         1 <0>         0.1109
     35 H8         -3.3554   -2.1600    0.0238 H         1 <0>         0.4123
     36 H9         -4.7557   -4.2826    0.9163 H         1 <0>         0.1031
     37 H10        -4.7734   -4.2730   -0.8635 H         1 <0>         0.1093
     38 H11        -3.7090   -6.5125   -0.8861 H         1 <0>         0.1176
     39 H12        -3.6913   -6.5220    0.8938 H         1 <0>         0.1116
     40 H13        -9.0151   -6.7494    2.5797 H         1 <0>         0.1029
     41 H14        -8.9103   -8.5028    2.3104 H         1 <0>         0.1278
     42 H15        -6.6659   -5.4395    3.6287 H         1 <0>         0.0957
     43 H16        -5.4406   -6.3389    4.5638 H         1 <0>         0.1260
     44 H17        -4.6956   -7.5090    2.5943 H         1 <0>         0.1176
     45 H18        -4.7132   -5.7788    2.2262 H         1 <0>         0.1051
@<TRIPOS>BOND
     1    1    6 ar
     2    1    2 ar
     3    1   29 1
     4    2    3 ar
     5    2   30 1
     6    3    4 ar
     7    3   28 1
     8    4    5 ar
     9    4   31 1
    10    5    6 ar
    11    5   32 1
    12    6    7 1
    13    7    8 2
    14    7    9 1
    15    9   10 1
    16    9   33 1
    17    9   34 1
    18   10   11 am
    19   10   35 1
    20   11   12 2
    21   11   13 1
    22   13   14 1
    23   13   36 1
    24   13   37 1
    25   14   15 1
    26   14   38 1
    27   14   39 1
    28   15   22 am
    29   15   16 1
    30   16   27 1
    31   16   17 2
    32   17   18 1
    33   17   24 1
    34   18   19 2
    35   18   20 am
    36   20   21 1
    37   20   22 am
    38   22   23 2
    39   24   25 1
    40   24   40 1
    41   24   41 1
    42   25   26 1
    43   26   27 1
    44   26   42 1
    45   26   43 1
    46   27   44 1
    47   27   45 1
@<TRIPOS>MOLECULE
CHEMBL107709
   44    47     0     0     0
SMALL
USER_CHARGES

@<TRIPOS>ATOM
      1 C1         -0.0166    1.3756    0.0096 C.ar      1 <0>        -0.0915
      2 C2          1.1677    2.0974    0.0022 C.ar      1 <0>        -0.1192
      3 C3          2.3849    1.4500   -0.0134 C.ar      1 <0>        -0.0550
      4 C4          2.4248    0.0566   -0.0213 C.ar      1 <0>        -0.1284
      5 C5          1.2201   -0.6753   -0.0133 C.ar      1 <0>        -0.0053
      6 C6          0.0021   -0.0041    0.0020 C.ar      1 <0>        -0.0891
      7 C7          1.2914   -2.1498   -0.0223 C.ar      1 <0>         0.1701
      8 C8          2.5484   -2.7678   -0.0387 C.ar      1 <0>         0.0697
      9 C9          2.6150   -4.1623   -0.0472 C.ar      1 <0>        -0.0675
     10 C10         1.4356   -4.8796   -0.0392 C.ar      1 <0>        -0.1905
     11 C11         0.2187   -4.1989   -0.0229 C.ar      1 <0>         0.3943
     12 N1          0.1798   -2.8788   -0.0146 N.ar      1 <0>        -0.5056
     13 N2         -0.9708   -4.9202   -0.0152 N.pl3     1 <0>        -0.7245
     14 C12        -0.9393   -6.3849   -0.0243 C.3       1 <0>         0.1312
     15 C13        -2.3704   -6.9258   -0.0131 C.3       1 <0>         0.0446
     16 N3         -2.3388   -8.3945   -0.0222 N.3       1 <0>        -0.5333
     17 C14        -1.7901   -8.9018   -1.2882 C.3       1 <0>         0.0113
     18 C15        -1.7198  -10.4301   -1.2316 C.3       1 <0>         0.0625
     19 O1         -3.0228  -10.9525   -0.9584 O.3       1 <0>        -0.3844
     20 C16        -3.5871  -10.4795    0.2677 C.3       1 <0>         0.0627
     21 C17        -3.6764   -8.9517    0.2263 C.3       1 <0>         0.0183
     22 N4          3.7138   -2.0188   -0.0459 N.am      1 <0>        -0.6334
     23 C18         3.7014   -0.6736   -0.0385 C.2       1 <0>         0.5561
     24 O2          4.7513   -0.0581   -0.0457 O.2       1 <0>        -0.5227
     25 H1         -0.9617    1.8980    0.0260 H         1 <0>         0.1339
     26 H2          1.1361    3.1769    0.0083 H         1 <0>         0.1351
     27 H3          3.3025    2.0194   -0.0199 H         1 <0>         0.1424
     28 H4         -0.9240   -0.5597    0.0083 H         1 <0>         0.1425
     29 H5          3.5687   -4.6690   -0.0602 H         1 <0>         0.1462
     30 H6          1.4552   -5.9594   -0.0458 H         1 <0>         0.1421
     31 H7         -1.8210   -4.4535   -0.0039 H         1 <0>         0.4060
     32 H8         -0.4267   -6.7317   -0.9216 H         1 <0>         0.0645
     33 H9         -0.4088   -6.7423    0.8583 H         1 <0>         0.0752
     34 H10        -2.8830   -6.5790    0.8841 H         1 <0>         0.0860
     35 H11        -2.9009   -6.5683   -0.8957 H         1 <0>         0.0453
     36 H12        -2.4351   -8.5974   -2.1125 H         1 <0>         0.0464
     37 H13        -0.7895   -8.4968   -1.4395 H         1 <0>         0.0896
     38 H14        -1.3672  -10.8139   -2.1890 H         1 <0>         0.1001
     39 H15        -1.0328  -10.7339   -0.4417 H         1 <0>         0.0618
     40 H16        -4.5851  -10.8991    0.3947 H         1 <0>         0.1007
     41 H17        -2.9545  -10.7847    1.1012 H         1 <0>         0.0619
     42 H18        -4.0527   -8.5831    1.1805 H         1 <0>         0.0893
     43 H19        -4.3516   -8.6481   -0.5738 H         1 <0>         0.0462
     44 H20         4.5672   -2.4797   -0.0567 H         1 <0>         0.4148
@<TRIPOS>BOND
     1    1    6 ar
     2    1    2 ar
     3    1   25 1
     4    2    3 ar
     5    2   26 1
     6    3    4 ar
     7    3   27 1
     8    4   23 1
     9    4    5 ar
    10    5    6 ar
    11    5    7 1
    12    6   28 1
    13    7   12 ar
    14    7    8 ar
    15    8    9 ar
    16    8   22 1
    17    9   10 ar
    18    9   29 1
    19   10   11 ar
    20   10   30 1
    21   11   12 ar
    22   11   13 1
    23   13   14 1
    24   13   31 1
    25   14   15 1
    26   14   32 1
    27   14   33 1
    28   15   16 1
    29   15   34 1
    30   15   35 1
    31   16   21 1
    32   16   17 1
    33   17   18 1
    34   17   36 1
    35   17   37 1
    36   18   19 1
    37   18   38 1
    38   18   39 1
    39   19   20 1
    40   20   21 1
    41   20   40 1
    42   20   41 1
    43   21   42 1
    44   21   43 1
    45   22   23 am
    46   22   44 1
    47   23   24 2
@<TRIPOS>MOLECULE
CHEMBL107709__1
   45    48     0     0     0
SMALL
USER_CHARGES

@<TRIPOS>ATOM
      1 C1         -0.0166    1.3756    0.0096 C.ar      1 <0>        -0.0896
      2 C2          1.1677    2.0974    0.0022 C.ar      1 <0>        -0.1118
      3 C3          2.3849    1.4500   -0.0134 C.ar      1 <0>        -0.0526
      4 C4          2.4248    0.0566   -0.0213 C.ar      1 <0>        -0.1259
      5 C5          1.2201   -0.6753   -0.0133 C.ar      1 <0>        -0.0150
      6 C6          0.0021   -0.0041    0.0020 C.ar      1 <0>        -0.0877
      7 C7          1.2914   -2.1498   -0.0223 C.ar      1 <0>         0.1746
      8 C8          2.5484   -2.7678   -0.0387 C.ar      1 <0>         0.0908
      9 C9          2.6150   -4.1623   -0.0472 C.ar      1 <0>        -0.0687
     10 C10         1.4356   -4.8796   -0.0392 C.ar      1 <0>        -0.1928
     11 C11         0.2187   -4.1989   -0.0229 C.ar      1 <0>         0.3790
     12 N1          0.1798   -2.8788   -0.0146 N.ar      1 <0>        -0.4931
     13 N2         -0.9708   -4.9202   -0.0152 N.pl3     1 <0>        -0.7286
     14 C12        -0.9393   -6.3849   -0.0243 C.3       1 <0>         0.1097
     15 C13        -2.3704   -6.9258   -0.0131 C.3       1 <0>        -0.0206
     16 N3         -2.3388   -8.3945   -0.0222 N.4       1 <0>        -0.3815
     17 C14        -1.7566   -8.8642   -1.2869 C.3       1 <0>        -0.0512
     18 C15        -1.7247  -10.3946   -1.2938 C.3       1 <0>         0.0363
     19 O1         -3.0518  -10.8948   -1.1086 O.3       1 <0>        -0.3554
     20 C16        -3.6711  -10.4450    0.0997 C.3       1 <0>         0.0357
     21 C17        -3.7067   -8.9148    0.1092 C.3       1 <0>        -0.0426
     22 N4          3.7138   -2.0188   -0.0459 N.am      1 <0>        -0.6369
     23 C18         3.7014   -0.6736   -0.0385 C.2       1 <0>         0.5560
     24 O2          4.7513   -0.0581   -0.0457 O.2       1 <0>        -0.5089
     25 H1         -0.9617    1.8980    0.0260 H         1 <0>         0.1367
     26 H2          1.1361    3.1769    0.0083 H         1 <0>         0.1391
     27 H3          3.3025    2.0194   -0.0199 H         1 <0>         0.1457
     28 H4         -0.9240   -0.5597    0.0083 H         1 <0>         0.1414
     29 H5          3.5687   -4.6690   -0.0602 H         1 <0>         0.1502
     30 H6          1.4552   -5.9594   -0.0458 H         1 <0>         0.1367
     31 H7         -1.8210   -4.4535   -0.0039 H         1 <0>         0.4125
     32 H8         -0.4267   -6.7317   -0.9216 H         1 <0>         0.0830
     33 H9         -0.4088   -6.7423    0.8583 H         1 <0>         0.0840
     34 H10        -2.8830   -6.5790    0.8841 H         1 <0>         0.1423
     35 H11        -2.9009   -6.5683   -0.8957 H         1 <0>         0.1403
     36 H12        -2.3630   -8.5094   -2.1203 H         1 <0>         0.1423
     37 H13        -0.7418   -8.4789   -1.3853 H         1 <0>         0.1441
     38 H14        -1.3331  -10.7462   -2.2484 H         1 <0>         0.1435
     39 H15        -1.0859  -10.7490   -0.4848 H         1 <0>         0.0828
     40 H16        -4.6882  -10.8331    0.1537 H         1 <0>         0.1439
     41 H17        -3.0990  -10.8011    0.9564 H         1 <0>         0.0827
     42 H18        -4.1395   -8.5669    1.0472 H         1 <0>         0.1451
     43 H19        -4.3124   -8.5600   -0.7247 H         1 <0>         0.1412
     44 H20         4.5672   -2.4797   -0.0567 H         1 <0>         0.4176
     45 H21        -1.7781   -8.7237    0.7493 H         1 <0>         0.4254
@<TRIPOS>BOND
     1    1    6 ar
     2    1    2 ar
     3    1   25 1
     4    2    3 ar
     5    2   26 1
     6    3    4 ar
     7    3   27 1
     8    4   23 1
     9    4    5 ar
    10    5    6 ar
    11    5    7 1
    12    6   28 1
    13    7   12 ar
    14    7    8 ar
    15    8    9 ar
    16    8   22 1
    17    9   10 ar
    18    9   29 1
    19   10   11 ar
    20   10   30 1
    21   11   12 ar
    22   11   13 1
    23   13   14 1
    24   13   31 1
    25   14   15 1
    26   14   32 1
    27   14   33 1
    28   15   16 1
    29   15   34 1
    30   15   35 1
    31   16   21 1
    32   16   17 1
    33   16   45 1
    34   17   18 1
    35   17   36 1
    36   17   37 1
    37   18   19 1
    38   18   38 1
    39   18   39 1
    40   19   20 1
    41   20   21 1
    42   20   40 1
    43   20   41 1
    44   21   42 1
    45   21   43 1
    46   22   23 am
    47   22   44 1
    48   23   24 2
@<TRIPOS>MOLECULE
CHEMBL381475
   50    55     0     0     0
SMALL
USER_CHARGES

@<TRIPOS>ATOM
      1 C1         -0.0169    1.3958    0.0097 C.ar      1 <0>        -0.0513
      2 C2          1.1481    2.1055    0.0024 C.ar      1 <0>        -0.1416
      3 C3          2.3756    1.4448   -0.0126 C.ar      1 <0>         0.1655
      4 C4          2.4052    0.0397   -0.0212 C.ar      1 <0>        -0.1066
      5 C5          1.2199   -0.6826   -0.0142 C.ar      1 <0>         0.0085
      6 C6          0.0021   -0.0041    0.0020 C.ar      1 <0>        -0.1685
      7 C7         -1.2655   -0.7606    0.0106 C.2       1 <0>         0.5696
      8 O1         -1.2480   -1.9763    0.0039 O.2       1 <0>        -0.5286
      9 N1         -2.4422   -0.1037    0.0259 N.am      1 <0>        -0.7289
     10 C8         -3.7002   -0.8544    0.0344 C.3       1 <0>         0.1090
     11 C9         -4.8773    0.1229    0.0514 C.3       1 <0>         0.1063
     12 N2         -6.1352   -0.6279    0.0600 N.pl3     1 <0>        -0.2936
     13 C10        -7.1316   -0.4952    0.9658 C.2       1 <0>        -0.0472
     14 C11        -8.0946   -1.3725    0.5984 C.2       1 <0>        -0.0483
     15 N3         -7.6461   -1.9909   -0.4998 N.2       1 <0>        -0.2655
     16 N4         -6.4850   -1.5233   -0.7961 N.2       1 <0>        -0.0808
     17 C12         3.8295   -0.3461   -0.0377 C.ar      1 <0>        -0.0870
     18 C13         4.4935   -1.5607   -0.0533 C.ar      1 <0>        -0.0196
     19 C14         5.8863   -1.5924   -0.0671 C.ar      1 <0>        -0.1737
     20 C15         6.6129   -0.3898   -0.0645 C.ar      1 <0>         0.0156
     21 C16         5.9611    0.8083   -0.0490 C.ar      1 <0>        -0.1287
     22 C17         4.5638    0.8514   -0.0365 C.ar      1 <0>         0.1869
     23 N5          3.6756    1.9070   -0.0217 N.pl3     1 <0>        -0.6022
     24 H1          3.9295    2.8432   -0.0180 H         1 <0>         0.4235
     25 C18         6.9638    1.9441   -0.0491 C.3       1 <0>        -0.0767
     26 C19         8.3013    1.2995    0.3728 C.3       1 <0>        -0.1199
     27 C20         8.1110   -0.1647   -0.0768 C.3       1 <0>        -0.0873
     28 C21         6.3174   -3.0015   -0.0826 C.2       1 <0>         0.5647
     29 O2          7.4748   -3.3736   -0.0970 O.2       1 <0>        -0.5247
     30 N6          5.2487   -3.8169   -0.0787 N.am      1 <0>        -0.7243
     31 C22         4.0320   -2.9966   -0.0600 C.3       1 <0>         0.1382
     32 H2         -0.9620    1.9183    0.0261 H         1 <0>         0.1326
     33 H3          1.1193    3.1851    0.0079 H         1 <0>         0.1342
     34 H4          1.2410   -1.7623   -0.0203 H         1 <0>         0.1417
     35 H5         -2.4562    0.8662    0.0312 H         1 <0>         0.4017
     36 H6         -3.7578   -1.4771   -0.8584 H         1 <0>         0.0911
     37 H7         -3.7400   -1.4866    0.9215 H         1 <0>         0.0800
     38 H8         -4.8197    0.7455    0.9442 H         1 <0>         0.1142
     39 H9         -4.8375    0.7550   -0.8356 H         1 <0>         0.1084
     40 H10        -7.1539    0.1756    1.8120 H         1 <0>         0.1930
     41 H11        -9.0391   -1.5404    1.0945 H         1 <0>         0.1925
     42 H12         7.0489    2.3737   -1.0473 H         1 <0>         0.0823
     43 H13         6.6691    2.7091    0.6692 H         1 <0>         0.0737
     44 H14         9.1380    1.7616   -0.1511 H         1 <0>         0.0828
     45 H15         8.4388    1.3601    1.4524 H         1 <0>         0.0763
     46 H16         8.6013   -0.8421    0.6224 H         1 <0>         0.0886
     47 H17         8.5067   -0.3063   -1.0826 H         1 <0>         0.0905
     48 H18         5.2771   -4.7864   -0.0873 H         1 <0>         0.4273
     49 H19         3.4513   -3.2079    0.8379 H         1 <0>         0.1029
     50 H20         3.4334   -3.1938   -0.9493 H         1 <0>         0.1031
@<TRIPOS>BOND
     1    1    6 ar
     2    1    2 ar
     3    1   32 1
     4    2    3 ar
     5    2   33 1
     6    3   23 1
     7    3    4 ar
     8    4    5 ar
     9    4   17 1
    10    5    6 ar
    11    5   34 1
    12    6    7 1
    13    7    8 2
    14    7    9 am
    15    9   10 1
    16    9   35 1
    17   10   11 1
    18   10   36 1
    19   10   37 1
    20   11   12 1
    21   11   38 1
    22   11   39 1
    23   12   16 1
    24   12   13 1
    25   13   14 2
    26   13   40 1
    27   14   15 1
    28   14   41 1
    29   15   16 2
    30   17   22 ar
    31   17   18 ar
    32   18   31 1
    33   18   19 ar
    34   19   20 ar
    35   19   28 1
    36   20   27 1
    37   20   21 ar
    38   21   22 ar
    39   21   25 1
    40   22   23 1
    41   23   24 1
    42   25   26 1
    43   25   42 1
    44   25   43 1
    45   26   27 1
    46   26   44 1
    47   26   45 1
    48   27   46 1
    49   27   47 1
    50   28   29 2
    51   28   30 am
    52   30   31 1
    53   30   48 1
    54   31   49 1
    55   31   50 1
@<TRIPOS>MOLECULE
CHEMBL563541
   53    57     0     0     0
SMALL
USER_CHARGES

@<TRIPOS>ATOM
      1 C1          0.0886    1.1453    0.7511 C.ar      1 <0>        -0.1583
      2 C2          1.2737    1.8665    0.7744 C.ar      1 <0>        -0.0845
      3 C3          2.4864    1.2328    0.5984 C.ar      1 <0>        -0.1457
      4 C4          2.5191   -0.1400    0.3966 C.ar      1 <0>         0.1951
      5 C5          1.3159   -0.8683    0.3739 C.ar      1 <0>        -0.1591
      6 C6          0.0999   -0.2079    0.5535 C.ar      1 <0>        -0.0364
      7 C7          1.3834   -2.3193    0.1578 C.2       1 <0>         0.4746
      8 O1          0.2527   -3.0627    0.1274 O.3       1 <0>        -0.6565
      9 N1          2.5569   -2.8844   -0.0060 N.2       1 <0>        -0.6110
     10 C8          3.7022   -2.1757    0.0179 C.2       1 <0>         0.3608
     11 N2          3.7108   -0.8208    0.2147 N.pl3     1 <0>        -0.3512
     12 N3          5.0417   -0.3854    0.1859 N.2       1 <0>        -0.3249
     13 C9          5.8245   -1.4294   -0.0206 C.2       1 <0>         0.0706
     14 C10         5.0204   -2.5727   -0.1322 C.2       1 <0>        -0.2825
     15 C11         7.2989   -1.3975   -0.1190 C.2       1 <0>         0.6063
     16 O2          7.9261   -2.4365   -0.1872 O.2       1 <0>        -0.5286
     17 N4          7.9479   -0.2164   -0.1333 N.am      1 <0>        -0.6031
     18 C12         7.2139    1.0433    0.0488 C.3       1 <0>         0.0689
     19 C13         7.5445    1.9797   -1.1177 C.3       1 <0>        -0.1292
     20 C14         9.0625    2.1457   -1.2189 C.3       1 <0>        -0.1139
     21 C15         9.7090    0.7858   -1.4929 C.3       1 <0>        -0.0985
     22 C16         9.4036   -0.1644   -0.3250 C.3       1 <0>         0.1282
     23 C17        11.2234    0.9580   -1.6265 C.3       1 <0>         0.0641
     24 N5         11.8349   -0.3338   -1.9660 N.3       1 <0>        -0.5346
     25 C18        13.2991   -0.2702   -1.8501 C.3       1 <0>         0.0191
     26 C19        13.8901   -1.6495   -2.1537 C.3       1 <0>         0.0628
     27 O3         13.4676   -2.0678   -3.4545 O.3       1 <0>        -0.3877
     28 C20        12.0470   -2.1414   -3.6024 C.3       1 <0>         0.0623
     29 C21        11.4373   -0.7671   -3.3134 C.3       1 <0>         0.0165
     30 H1         -0.8517    1.6569    0.8947 H         1 <0>         0.1241
     31 H2          1.2465    2.9347    0.9316 H         1 <0>         0.1255
     32 H3          3.4045    1.8013    0.6172 H         1 <0>         0.1326
     33 H4         -0.8268   -0.7622    0.5370 H         1 <0>         0.1394
     34 H5          5.3667   -3.5813   -0.3030 H         1 <0>         0.1517
     35 H6          6.1426    0.8431    0.0643 H         1 <0>         0.1499
     36 H7          7.5143    1.5089    0.9875 H         1 <0>         0.0599
     37 H8          7.1624    1.5539   -2.0455 H         1 <0>         0.0645
     38 H9          7.0828    2.9520   -0.9459 H         1 <0>         0.0729
     39 H10         9.2994    2.8309   -2.0328 H         1 <0>         0.0607
     40 H11         9.4470    2.5484   -0.2819 H         1 <0>         0.0638
     41 H12         9.3065    0.3713   -2.4172 H         1 <0>         0.0759
     42 H13         9.8790    0.2047    0.5838 H         1 <0>         0.0618
     43 H14         9.7776   -1.1618   -0.5563 H         1 <0>         0.1017
     44 H15        11.4389    1.6801   -2.4140 H         1 <0>         0.0381
     45 H16        11.6329    1.3169   -0.6823 H         1 <0>         0.0780
     46 H17        13.6893    0.4576   -2.5616 H         1 <0>         0.0404
     47 H18        13.5715    0.0276   -0.8376 H         1 <0>         0.0856
     48 H19        14.9783   -1.5936   -2.1250 H         1 <0>         0.0957
     49 H20        13.5421   -2.3663   -1.4100 H         1 <0>         0.0616
     50 H21        11.8022   -2.4412   -4.6213 H         1 <0>         0.0976
     51 H22        11.6454   -2.8725   -2.9007 H         1 <0>         0.0644
     52 H23        10.3507   -0.8319   -3.3690 H         1 <0>         0.0901
     53 H24        11.7977   -0.0472   -4.0483 H         1 <0>         0.0407
@<TRIPOS>BOND
     1    1    6 ar
     2    1    2 ar
     3    1   30 1
     4    2    3 ar
     5    2   31 1
     6    3    4 ar
     7    3   32 1
     8    4   11 1
     9    4    5 ar
    10    5    6 ar
    11    5    7 1
    12    6   33 1
    13    7    8 1
    14    7    9 2
    15    9   10 1
    16   10   14 2
    17   10   11 1
    18   11   12 1
    19   12   13 2
    20   13   14 1
    21   13   15 1
    22   14   34 1
    23   15   16 2
    24   15   17 am
    25   17   22 1
    26   17   18 1
    27   18   19 1
    28   18   35 1
    29   18   36 1
    30   19   20 1
    31   19   37 1
    32   19   38 1
    33   20   21 1
    34   20   39 1
    35   20   40 1
    36   21   22 1
    37   21   23 1
    38   21   41 1
    39   22   42 1
    40   22   43 1
    41   23   24 1
    42   23   44 1
    43   23   45 1
    44   24   29 1
    45   24   25 1
    46   25   26 1
    47   25   46 1
    48   25   47 1
    49   26   27 1
    50   26   48 1
    51   26   49 1
    52   27   28 1
    53   28   29 1
    54   28   50 1
    55   28   51 1
    56   29   52 1
    57   29   53 1
@<TRIPOS>MOLECULE
CHEMBL563541__1
   54    58     0     0     0
SMALL
USER_CHARGES

@<TRIPOS>ATOM
      1 C1          0.2360    1.0504    1.3602 C.ar      1 <0>        -0.1526
      2 C2          1.4095    1.7881    1.2978 C.ar      1 <0>        -0.0825
      3 C3          2.6199    1.1666    1.0697 C.ar      1 <0>        -0.1458
      4 C4          2.6620   -0.2105    0.9017 C.ar      1 <0>         0.1894
      5 C5          1.4707   -0.9556    0.9661 C.ar      1 <0>        -0.1563
      6 C6          0.2568   -0.3073    1.1972 C.ar      1 <0>        -0.0349
      7 C7          1.5479   -2.4107    0.7839 C.2       1 <0>         0.4767
      8 O1          0.4287   -3.1700    0.8368 O.3       1 <0>        -0.6439
      9 N1          2.7187   -2.9638    0.5685 N.2       1 <0>        -0.6112
     10 C8          3.8527   -2.2391    0.5092 C.2       1 <0>         0.3679
     11 N2          3.8518   -0.8795    0.6702 N.pl3     1 <0>        -0.3455
     12 N3          5.1722   -0.4268    0.5548 N.2       1 <0>        -0.3294
     13 C9          5.9579   -1.4651    0.3313 C.2       1 <0>         0.0572
     14 C10         5.1662   -2.6218    0.2949 C.2       1 <0>        -0.2819
     15 C11         7.4237   -1.4156    0.1486 C.2       1 <0>         0.6171
     16 O2          8.0612   -2.4474    0.0670 O.2       1 <0>        -0.5314
     17 N4          8.0535   -0.2265    0.0726 N.am      1 <0>        -0.6036
     18 C12         7.3125    1.0270    0.2682 C.3       1 <0>         0.0639
     19 C13         7.5639    1.9413   -0.9350 C.3       1 <0>        -0.1321
     20 C14         9.0713    2.1254   -1.1245 C.3       1 <0>        -0.1094
     21 C15         9.7214    0.7685   -1.4047 C.3       1 <0>        -0.1335
     22 C16         9.4955   -0.1593   -0.2013 C.3       1 <0>         0.1051
     23 C17        11.2234    0.9580   -1.6265 C.3       1 <0>        -0.0010
     24 N5         11.8349   -0.3338   -1.9660 N.4       1 <0>        -0.3892
     25 C18        13.2943   -0.1801   -2.0423 C.3       1 <0>        -0.0428
     26 C19        13.9291   -1.5273   -2.3959 C.3       1 <0>         0.0349
     27 O3         13.3847   -1.9948   -3.6332 O.3       1 <0>        -0.3580
     28 C20        11.9617   -2.1380   -3.6163 C.3       1 <0>         0.0357
     29 C21        11.3232   -0.7919   -3.2650 C.3       1 <0>        -0.0480
     30 H1         -0.7023    1.5526    1.5437 H         1 <0>         0.1276
     31 H2          1.3750    2.8596    1.4286 H         1 <0>         0.1277
     32 H3          3.5288    1.7480    1.0218 H         1 <0>         0.1314
     33 H4         -0.6609   -0.8745    1.2475 H         1 <0>         0.1422
     34 H5          5.5177   -3.6298    0.1308 H         1 <0>         0.1516
     35 H6          6.2467    0.8128    0.3479 H         1 <0>         0.1604
     36 H7          7.6577    1.5175    1.1783 H         1 <0>         0.0670
     37 H8          7.1371    1.4898   -1.8305 H         1 <0>         0.0707
     38 H9          7.0983    2.9110   -0.7586 H         1 <0>         0.0865
     39 H10         9.2525    2.7954   -1.9650 H         1 <0>         0.0751
     40 H11         9.5015    2.5541   -0.2193 H         1 <0>         0.0757
     41 H12         9.2743    0.3280   -2.2959 H         1 <0>         0.1001
     42 H13        10.0152    0.2364    0.6713 H         1 <0>         0.0792
     43 H14         9.8705   -1.1565   -0.4315 H         1 <0>         0.0835
     44 H15        11.3841    1.6619   -2.4430 H         1 <0>         0.1348
     45 H16        11.6788    1.3475   -0.7160 H         1 <0>         0.1352
     46 H17        13.5431    0.5520   -2.8106 H         1 <0>         0.1383
     47 H18        13.6749    0.1596   -1.0791 H         1 <0>         0.1419
     48 H19        15.0078   -1.4064   -2.4954 H         1 <0>         0.1406
     49 H20        13.7141   -2.2490   -1.6079 H         1 <0>         0.0816
     50 H21        11.6165   -2.4591   -4.5991 H         1 <0>         0.1425
     51 H22        11.6794   -2.8806   -2.8701 H         1 <0>         0.0844
     52 H23        10.2406   -0.9064   -3.2095 H         1 <0>         0.1441
     53 H24        11.5727   -0.0596   -4.0329 H         1 <0>         0.1393
     54 H25        11.6047   -1.0122   -1.2555 H         1 <0>         0.4235
@<TRIPOS>BOND
     1    1    6 ar
     2    1    2 ar
     3    1   30 1
     4    2    3 ar
     5    2   31 1
     6    3    4 ar
     7    3   32 1
     8    4   11 1
     9    4    5 ar
    10    5    6 ar
    11    5    7 1
    12    6   33 1
    13    7    8 1
    14    7    9 2
    15    9   10 1
    16   10   14 2
    17   10   11 1
    18   11   12 1
    19   12   13 2
    20   13   14 1
    21   13   15 1
    22   14   34 1
    23   15   16 2
    24   15   17 am
    25   17   22 1
    26   17   18 1
    27   18   19 1
    28   18   35 1
    29   18   36 1
    30   19   20 1
    31   19   37 1
    32   19   38 1
    33   20   21 1
    34   20   39 1
    35   20   40 1
    36   21   22 1
    37   21   23 1
    38   21   41 1
    39   22   42 1
    40   22   43 1
    41   23   24 1
    42   23   44 1
    43   23   45 1
    44   24   29 1
    45   24   25 1
    46   24   54 1
    47   25   26 1
    48   25   46 1
    49   25   47 1
    50   26   27 1
    51   26   48 1
    52   26   49 1
    53   27   28 1
    54   28   29 1
    55   28   50 1
    56   28   51 1
    57   29   52 1
    58   29   53 1
@<TRIPOS>MOLECULE
CHEMBL563541__2
   53    57     0     0     0
SMALL
USER_CHARGES

@<TRIPOS>ATOM
      1 C1         -0.0076    1.2698   -0.8619 C.ar      1 <0>        -0.1583
      2 C2          1.1779    1.9787   -0.9934 C.ar      1 <0>        -0.0848
      3 C3          2.3948    1.3539   -0.8140 C.ar      1 <0>        -0.1455
      4 C4          2.4313    0.0028   -0.4985 C.ar      1 <0>         0.1954
      5 C5          1.2277   -0.7129   -0.3654 C.ar      1 <0>        -0.1590
      6 C6          0.0075   -0.0620   -0.5515 C.ar      1 <0>        -0.0366
      7 C7          1.2993   -2.1412   -0.0314 C.2       1 <0>         0.4746
      8 O1          0.1684   -2.8719    0.1067 O.3       1 <0>        -0.6568
      9 N1          2.4767   -2.6985    0.1308 N.2       1 <0>        -0.6113
     10 C8          3.6223   -2.0021    0.0006 C.2       1 <0>         0.3595
     11 N2          3.6273   -0.6685   -0.3093 N.pl3     1 <0>        -0.3514
     12 N3          4.9596   -0.2411   -0.3717 N.2       1 <0>        -0.3217
     13 C9          5.7468   -1.2695   -0.1109 C.2       1 <0>         0.0673
     14 C10         4.9443   -2.3943    0.1276 C.2       1 <0>        -0.2831
     15 C11         7.2242   -1.2398   -0.0778 C.2       1 <0>         0.6076
     16 O2          7.8504   -2.2749    0.0415 O.2       1 <0>        -0.5281
     17 N4          7.8770   -0.0652   -0.1798 N.am      1 <0>        -0.6041
     18 C12         7.1394    1.2054   -0.1602 C.3       1 <0>         0.0833
     19 C13         7.7367    2.1056    0.9259 C.3       1 <0>        -0.1320
     20 C14         9.2411    2.2557    0.6881 C.3       1 <0>        -0.1135
     21 C15         9.9125    0.8832    0.7751 C.3       1 <0>        -0.0991
     22 C16         9.3404   -0.0306   -0.3066 C.3       1 <0>         0.1275
     23 C17        11.4207    1.0386    0.5698 C.3       1 <0>         0.0643
     24 N5         12.0786   -0.2592    0.7718 N.3       1 <0>        -0.5346
     25 C18        11.9659   -0.6948    2.1714 C.3       1 <0>         0.0165
     26 C19        12.6108   -2.0749    2.3241 C.3       1 <0>         0.0623
     27 O3         13.9702   -2.0117    1.8846 O.3       1 <0>        -0.3878
     28 C20        14.1169   -1.5913    0.5255 C.3       1 <0>         0.0629
     29 C21        13.4873   -0.2063    0.3545 C.3       1 <0>         0.0191
     30 H1         -0.9515    1.7756   -1.0017 H         1 <0>         0.1241
     31 H2          1.1478    3.0300   -1.2391 H         1 <0>         0.1255
     32 H3          3.3131    1.9125   -0.9189 H         1 <0>         0.1328
     33 H4         -0.9196   -0.6067   -0.4505 H         1 <0>         0.1393
     34 H5          5.2942   -3.3873    0.3683 H         1 <0>         0.1513
     35 H6          7.2286    1.6946   -1.1302 H         1 <0>         0.0624
     36 H7          6.0891    1.0147    0.0600 H         1 <0>         0.1352
     37 H8          7.2626    3.0863    0.8870 H         1 <0>         0.0740
     38 H9          7.5661    1.6571    1.9046 H         1 <0>         0.0643
     39 H10         9.4117    2.6814   -0.3008 H         1 <0>         0.0644
     40 H11         9.6643    2.9157    1.4453 H         1 <0>         0.0612
     41 H12         9.7214    0.4462    1.7552 H         1 <0>         0.0764
     42 H13         9.7418   -1.0364   -0.1829 H         1 <0>         0.1021
     43 H14         9.6131    0.3556   -1.2887 H         1 <0>         0.0616
     44 H15        11.6151    1.3908   -0.4433 H         1 <0>         0.0782
     45 H16        11.8125    1.7601    1.2867 H         1 <0>         0.0381
     46 H17        12.4770    0.0192    2.8171 H         1 <0>         0.0405
     47 H18        10.9140   -0.7516    2.4513 H         1 <0>         0.0907
     48 H19        12.5804   -2.3770    3.3710 H         1 <0>         0.0975
     49 H20        12.0662   -2.8001    1.7194 H         1 <0>         0.0644
     50 H21        15.1758   -1.5436    0.2715 H         1 <0>         0.0957
     51 H22        13.6161   -2.3024   -0.1315 H         1 <0>         0.0615
     52 H23        13.5460    0.0935   -0.6918 H         1 <0>         0.0856
     53 H24        14.0228    0.5155    0.9712 H         1 <0>         0.0404
@<TRIPOS>BOND
     1    1    6 ar
     2    1    2 ar
     3    1   30 1
     4    2    3 ar
     5    2   31 1
     6    3    4 ar
     7    3   32 1
     8    4   11 1
     9    4    5 ar
    10    5    6 ar
    11    5    7 1
    12    6   33 1
    13    7    8 1
    14    7    9 2
    15    9   10 1
    16   10   14 2
    17   10   11 1
    18   11   12 1
    19   12   13 2
    20   13   14 1
    21   13   15 1
    22   14   34 1
    23   15   16 2
    24   15   17 am
    25   17   22 1
    26   17   18 1
    27   18   19 1
    28   18   35 1
    29   18   36 1
    30   19   20 1
    31   19   37 1
    32   19   38 1
    33   20   21 1
    34   20   39 1
    35   20   40 1
    36   21   22 1
    37   21   23 1
    38   21   41 1
    39   22   42 1
    40   22   43 1
    41   23   24 1
    42   23   44 1
    43   23   45 1
    44   24   29 1
    45   24   25 1
    46   25   26 1
    47   25   46 1
    48   25   47 1
    49   26   27 1
    50   26   48 1
    51   26   49 1
    52   27   28 1
    53   28   29 1
    54   28   50 1
    55   28   51 1
    56   29   52 1
    57   29   53 1
@<TRIPOS>MOLECULE
CHEMBL563541__3
   54    58     0     0     0
SMALL
USER_CHARGES

@<TRIPOS>ATOM
      1 C1         -0.0076    1.2698   -0.8619 C.ar      1 <0>        -0.1526
      2 C2          1.1779    1.9787   -0.9934 C.ar      1 <0>        -0.0828
      3 C3          2.3948    1.3539   -0.8140 C.ar      1 <0>        -0.1455
      4 C4          2.4313    0.0028   -0.4985 C.ar      1 <0>         0.1898
      5 C5          1.2277   -0.7129   -0.3654 C.ar      1 <0>        -0.1563
      6 C6          0.0075   -0.0620   -0.5515 C.ar      1 <0>        -0.0351
      7 C7          1.2993   -2.1412   -0.0314 C.2       1 <0>         0.4767
      8 O1          0.1684   -2.8719    0.1067 O.3       1 <0>        -0.6444
      9 N1          2.4767   -2.6985    0.1308 N.2       1 <0>        -0.6116
     10 C8          3.6223   -2.0021    0.0006 C.2       1 <0>         0.3667
     11 N2          3.6273   -0.6685   -0.3093 N.pl3     1 <0>        -0.3458
     12 N3          4.9596   -0.2411   -0.3717 N.2       1 <0>        -0.3259
     13 C9          5.7468   -1.2695   -0.1109 C.2       1 <0>         0.0538
     14 C10         4.9443   -2.3943    0.1276 C.2       1 <0>        -0.2827
     15 C11         7.2242   -1.2398   -0.0778 C.2       1 <0>         0.6191
     16 O2          7.8504   -2.2749    0.0415 O.2       1 <0>        -0.5322
     17 N4          7.8770   -0.0652   -0.1798 N.am      1 <0>        -0.6047
     18 C12         7.1394    1.2054   -0.1602 C.3       1 <0>         0.0786
     19 C13         7.7367    2.1056    0.9259 C.3       1 <0>        -0.1348
     20 C14         9.2411    2.2557    0.6881 C.3       1 <0>        -0.1090
     21 C15         9.9125    0.8832    0.7751 C.3       1 <0>        -0.1337
     22 C16         9.3404   -0.0306   -0.3066 C.3       1 <0>         0.1057
     23 C17        11.4207    1.0386    0.5698 C.3       1 <0>        -0.0009
     24 N5         12.0786   -0.2592    0.7718 N.4       1 <0>        -0.3890
     25 C18        11.9189   -0.6769    2.1715 C.3       1 <0>        -0.0480
     26 C19        12.6050   -2.0294    2.3793 C.3       1 <0>         0.0358
     27 O3         13.9846   -1.9186    2.0183 O.3       1 <0>        -0.3581
     28 C20        14.1922   -1.4909    0.6693 C.3       1 <0>         0.0350
     29 C21        13.5090   -0.1374    0.4583 C.3       1 <0>        -0.0427
     30 H1         -0.9515    1.7756   -1.0017 H         1 <0>         0.1275
     31 H2          1.1478    3.0300   -1.2391 H         1 <0>         0.1276
     32 H3          3.3131    1.9125   -0.9189 H         1 <0>         0.1317
     33 H4         -0.9196   -0.6067   -0.4505 H         1 <0>         0.1421
     34 H5          5.2942   -3.3873    0.3683 H         1 <0>         0.1512
     35 H6          7.2286    1.6946   -1.1302 H         1 <0>         0.0696
     36 H7          6.0891    1.0147    0.0600 H         1 <0>         0.1458
     37 H8          7.2626    3.0863    0.8870 H         1 <0>         0.0876
     38 H9          7.5661    1.6571    1.9046 H         1 <0>         0.0703
     39 H10         9.4117    2.6814   -0.3008 H         1 <0>         0.0765
     40 H11         9.6643    2.9157    1.4453 H         1 <0>         0.0754
     41 H12         9.7214    0.4462    1.7552 H         1 <0>         0.0999
     42 H13         9.7418   -1.0364   -0.1829 H         1 <0>         0.0841
     43 H14         9.6131    0.3556   -1.2887 H         1 <0>         0.0786
     44 H15        11.6151    1.3908   -0.4433 H         1 <0>         0.1354
     45 H16        11.8125    1.7601    1.2867 H         1 <0>         0.1349
     46 H17        12.3735    0.0660    2.8268 H         1 <0>         0.1392
     47 H18        10.8581   -0.7677    2.4050 H         1 <0>         0.1445
     48 H19        12.5251   -2.3210    3.4265 H         1 <0>         0.1424
     49 H20        12.1243   -2.7814    1.7536 H         1 <0>         0.0845
     50 H21        15.2610   -1.3927    0.4790 H         1 <0>         0.1405
     51 H22        13.7658   -2.2244   -0.0149 H         1 <0>         0.0816
     52 H23        13.6286    0.1724   -0.5799 H         1 <0>         0.1419
     53 H24        13.9631    0.6053    1.1143 H         1 <0>         0.1383
     54 H25        11.6586   -0.9474    0.1651 H         1 <0>         0.4237
@<TRIPOS>BOND
     1    1    6 ar
     2    1    2 ar
     3    1   30 1
     4    2    3 ar
     5    2   31 1
     6    3    4 ar
     7    3   32 1
     8    4   11 1
     9    4    5 ar
    10    5    6 ar
    11    5    7 1
    12    6   33 1
    13    7    8 1
    14    7    9 2
    15    9   10 1
    16   10   14 2
    17   10   11 1
    18   11   12 1
    19   12   13 2
    20   13   14 1
    21   13   15 1
    22   14   34 1
    23   15   16 2
    24   15   17 am
    25   17   22 1
    26   17   18 1
    27   18   19 1
    28   18   35 1
    29   18   36 1
    30   19   20 1
    31   19   37 1
    32   19   38 1
    33   20   21 1
    34   20   39 1
    35   20   40 1
    36   21   22 1
    37   21   23 1
    38   21   41 1
    39   22   42 1
    40   22   43 1
    41   23   24 1
    42   23   44 1
    43   23   45 1
    44   24   29 1
    45   24   25 1
    46   24   54 1
    47   25   26 1
    48   25   46 1
    49   25   47 1
    50   26   27 1
    51   26   48 1
    52   26   49 1
    53   27   28 1
    54   28   29 1
    55   28   50 1
    56   28   51 1
    57   29   52 1
    58   29   53 1
@<TRIPOS>MOLECULE
CHEMBL550703
   46    49     0     0     0
SMALL
USER_CHARGES

@<TRIPOS>ATOM
      1 C1         -0.0165    1.3634    0.0095 C.ar      1 <0>        -0.1577
      2 C2          1.1676    2.0867    0.0021 C.ar      1 <0>        -0.0851
      3 C3          2.3865    1.4407   -0.0134 C.ar      1 <0>        -0.1448
      4 C4          2.4265    0.0533   -0.0212 C.ar      1 <0>         0.1949
      5 C5          1.2244   -0.6770   -0.0132 C.ar      1 <0>        -0.1582
      6 C6          0.0021   -0.0041    0.0020 C.ar      1 <0>        -0.0368
      7 C7          1.2997   -2.1436   -0.0222 C.2       1 <0>         0.4743
      8 O1          0.1704   -2.8896   -0.0155 O.3       1 <0>        -0.6569
      9 N1          2.4789   -2.7201   -0.0374 N.2       1 <0>        -0.6111
     10 C8          3.6232   -2.0093   -0.0449 C.2       1 <0>         0.3565
     11 N2          3.6247   -0.6402   -0.0372 N.pl3     1 <0>        -0.3480
     12 N3          4.9563   -0.2064   -0.0482 N.2       1 <0>        -0.3206
     13 C9          5.7465   -1.2651   -0.0622 C.2       1 <0>         0.0607
     14 C10         4.9466   -2.4167   -0.0614 C.2       1 <0>        -0.2845
     15 C11         7.2242   -1.2398   -0.0778 C.2       1 <0>         0.6103
     16 O2          7.8498   -2.2820   -0.0904 O.2       1 <0>        -0.5290
     17 N4          7.8781   -0.0613   -0.0780 N.am      1 <0>        -0.7221
     18 C12         9.3428   -0.0363   -0.0935 C.3       1 <0>         0.1220
     19 C13         9.8281    1.4147   -0.0904 C.3       1 <0>        -0.1287
     20 C14        11.3578    1.4409   -0.1066 C.3       1 <0>         0.0591
     21 N5         11.8238    2.8340   -0.1036 N.3       1 <0>        -0.5372
     22 C15        11.4557    3.5153   -1.3533 C.3       1 <0>         0.0126
     23 C16        11.9065    4.9767   -1.2833 C.3       1 <0>         0.0630
     24 O3         13.3141    5.0247   -1.0348 O.3       1 <0>        -0.3872
     25 C17        13.7078    4.3711    0.1748 C.3       1 <0>         0.0634
     26 C18        13.2752    2.9036    0.1196 C.3       1 <0>         0.0170
     27 H1         -0.9619    1.8853    0.0259 H         1 <0>         0.1245
     28 H2          1.1347    3.1662    0.0082 H         1 <0>         0.1258
     29 H3          3.3037    2.0108   -0.0198 H         1 <0>         0.1334
     30 H4         -0.9239   -0.5599    0.0082 H         1 <0>         0.1398
     31 H5          5.2991   -3.4375   -0.0705 H         1 <0>         0.1517
     32 H6          7.3788    0.7703   -0.0680 H         1 <0>         0.4082
     33 H7          9.7243   -0.5489    0.7895 H         1 <0>         0.0696
     34 H8          9.7053   -0.5387   -0.9903 H         1 <0>         0.0671
     35 H9          9.4466    1.9273   -0.9735 H         1 <0>         0.0705
     36 H10         9.4656    1.9172    0.8063 H         1 <0>         0.0806
     37 H11        11.7393    0.9282    0.7765 H         1 <0>         0.0812
     38 H12        11.7203    0.9384   -1.0034 H         1 <0>         0.0402
     39 H13        11.9450    3.0233   -2.1939 H         1 <0>         0.0438
     40 H14        10.3745    3.4739   -1.4856 H         1 <0>         0.0910
     41 H15        11.6870    5.4710   -2.2297 H         1 <0>         0.0981
     42 H16        11.3769    5.4828   -0.4762 H         1 <0>         0.0605
     43 H17        14.7909    4.4275    0.2830 H         1 <0>         0.0975
     44 H18        13.2306    4.8596    1.0244 H         1 <0>         0.0601
     45 H19        13.5222    2.4156    1.0625 H         1 <0>         0.0874
     46 H20        13.7936    2.4018   -0.6974 H         1 <0>         0.0434
@<TRIPOS>BOND
     1    1    6 ar
     2    1    2 ar
     3    1   27 1
     4    2    3 ar
     5    2   28 1
     6    3    4 ar
     7    3   29 1
     8    4   11 1
     9    4    5 ar
    10    5    6 ar
    11    5    7 1
    12    6   30 1
    13    7    8 1
    14    7    9 2
    15    9   10 1
    16   10   14 2
    17   10   11 1
    18   11   12 1
    19   12   13 2
    20   13   14 1
    21   13   15 1
    22   14   31 1
    23   15   16 2
    24   15   17 am
    25   17   18 1
    26   17   32 1
    27   18   19 1
    28   18   33 1
    29   18   34 1
    30   19   20 1
    31   19   35 1
    32   19   36 1
    33   20   21 1
    34   20   37 1
    35   20   38 1
    36   21   26 1
    37   21   22 1
    38   22   23 1
    39   22   39 1
    40   22   40 1
    41   23   24 1
    42   23   41 1
    43   23   42 1
    44   24   25 1
    45   25   26 1
    46   25   43 1
    47   25   44 1
    48   26   45 1
    49   26   46 1
@<TRIPOS>MOLECULE
CHEMBL550703__1
   47    50     0     0     0
SMALL
USER_CHARGES

@<TRIPOS>ATOM
      1 C1         -0.0165    1.3634    0.0095 C.ar      1 <0>        -0.1539
      2 C2          1.1676    2.0867    0.0021 C.ar      1 <0>        -0.0843
      3 C3          2.3865    1.4407   -0.0134 C.ar      1 <0>        -0.1461
      4 C4          2.4265    0.0533   -0.0212 C.ar      1 <0>         0.1913
      5 C5          1.2244   -0.6770   -0.0132 C.ar      1 <0>        -0.1560
      6 C6          0.0021   -0.0041    0.0020 C.ar      1 <0>        -0.0348
      7 C7          1.2997   -2.1436   -0.0222 C.2       1 <0>         0.4753
      8 O1          0.1704   -2.8896   -0.0155 O.3       1 <0>        -0.6463
      9 N1          2.4789   -2.7201   -0.0374 N.2       1 <0>        -0.6105
     10 C8          3.6232   -2.0093   -0.0449 C.2       1 <0>         0.3624
     11 N2          3.6247   -0.6402   -0.0372 N.pl3     1 <0>        -0.3449
     12 N3          4.9563   -0.2064   -0.0482 N.2       1 <0>        -0.3277
     13 C9          5.7465   -1.2651   -0.0622 C.2       1 <0>         0.0517
     14 C10         4.9466   -2.4167   -0.0614 C.2       1 <0>        -0.2840
     15 C11         7.2242   -1.2398   -0.0778 C.2       1 <0>         0.6177
     16 O2          7.8498   -2.2820   -0.0904 O.2       1 <0>        -0.5201
     17 N4          7.8781   -0.0613   -0.0780 N.am      1 <0>        -0.7306
     18 C12         9.3428   -0.0363   -0.0935 C.3       1 <0>         0.1261
     19 C13         9.8281    1.4147   -0.0904 C.3       1 <0>        -0.1635
     20 C14        11.3578    1.4409   -0.1066 C.3       1 <0>        -0.0050
     21 N5         11.8238    2.8340   -0.1036 N.4       1 <0>        -0.3849
     22 C15        11.4115    3.4912   -1.3515 C.3       1 <0>        -0.0498
     23 C16        11.8980    4.9425   -1.3459 C.3       1 <0>         0.0367
     24 O3         13.3192    4.9629   -1.1861 O.3       1 <0>        -0.3582
     25 C17        13.7721    4.3128    0.0047 C.3       1 <0>         0.0360
     26 C18        13.2891    2.8603    0.0016 C.3       1 <0>        -0.0433
     27 H1         -0.9619    1.8853    0.0259 H         1 <0>         0.1271
     28 H2          1.1347    3.1662    0.0082 H         1 <0>         0.1265
     29 H3          3.3037    2.0108   -0.0198 H         1 <0>         0.1308
     30 H4         -0.9239   -0.5599    0.0082 H         1 <0>         0.1422
     31 H5          5.2991   -3.4375   -0.0705 H         1 <0>         0.1522
     32 H6          7.3788    0.7703   -0.0680 H         1 <0>         0.4100
     33 H7          9.7243   -0.5489    0.7895 H         1 <0>         0.0783
     34 H8          9.7053   -0.5387   -0.9903 H         1 <0>         0.0780
     35 H9          9.4466    1.9273   -0.9735 H         1 <0>         0.0949
     36 H10         9.4656    1.9172    0.8063 H         1 <0>         0.0961
     37 H11        11.7393    0.9282    0.7765 H         1 <0>         0.1382
     38 H12        11.7203    0.9384   -1.0034 H         1 <0>         0.1359
     39 H13        11.8473    2.9649   -2.2008 H         1 <0>         0.1404
     40 H14        10.3246    3.4723   -1.4306 H         1 <0>         0.1451
     41 H15        11.6309    5.4196   -2.2888 H         1 <0>         0.1416
     42 H16        11.4312    5.4797   -0.5203 H         1 <0>         0.0812
     43 H17        14.8614    4.3341    0.0393 H         1 <0>         0.1410
     44 H18        13.3694    4.8284    0.8766 H         1 <0>         0.0807
     45 H19        13.5960    2.3731    0.9271 H         1 <0>         0.1433
     46 H20        13.7242    2.3342   -0.8481 H         1 <0>         0.1394
     47 H21        11.4212    3.3218    0.6825 H         1 <0>         0.4235
@<TRIPOS>BOND
     1    1    6 ar
     2    1    2 ar
     3    1   27 1
     4    2    3 ar
     5    2   28 1
     6    3    4 ar
     7    3   29 1
     8    4   11 1
     9    4    5 ar
    10    5    6 ar
    11    5    7 1
    12    6   30 1
    13    7    8 1
    14    7    9 2
    15    9   10 1
    16   10   14 2
    17   10   11 1
    18   11   12 1
    19   12   13 2
    20   13   14 1
    21   13   15 1
    22   14   31 1
    23   15   16 2
    24   15   17 am
    25   17   18 1
    26   17   32 1
    27   18   19 1
    28   18   33 1
    29   18   34 1
    30   19   20 1
    31   19   35 1
    32   19   36 1
    33   20   21 1
    34   20   37 1
    35   20   38 1
    36   21   26 1
    37   21   22 1
    38   21   47 1
    39   22   23 1
    40   22   39 1
    41   22   40 1
    42   23   24 1
    43   23   41 1
    44   23   42 1
    45   24   25 1
    46   25   26 1
    47   25   43 1
    48   25   44 1
    49   26   45 1
    50   26   46 1
@<TRIPOS>MOLECULE
CHEMBL344113
   38    41     0     0     0
SMALL
USER_CHARGES

@<TRIPOS>ATOM
      1 C1         -0.0153    1.3806    0.0294 C.ar      1 <0>        -0.1309
      2 C2          0.1398    0.2191    0.7637 C.ar      1 <0>        -0.0991
      3 C3          1.3441   -0.4566    0.7438 C.ar      1 <0>        -0.1188
      4 C4          2.4001    0.0315   -0.0152 C.ar      1 <0>         0.1413
      5 C5          2.2408    1.1982   -0.7519 C.ar      1 <0>        -0.1438
      6 C6          1.0340    1.8693   -0.7272 C.ar      1 <0>        -0.0998
      7 N1          3.6208   -0.6499   -0.0372 N.am      1 <0>        -0.6712
      8 C7          3.6440   -1.9942    0.0571 C.2       1 <0>         0.5858
      9 O1          2.6018   -2.6214    0.0647 O.2       1 <0>        -0.4935
     10 C8          4.9302   -2.7031    0.1509 C.2       1 <0>         0.0207
     11 C9          5.0815   -4.0492    0.2444 C.2       1 <0>        -0.0654
     12 C10         6.4716   -4.3190    0.3518 C.ar      1 <0>        -0.0901
     13 C11         7.2140   -5.5064    0.5312 C.ar      1 <0>        -0.0753
     14 C12         8.6028   -5.4493    0.4232 C.ar      1 <0>        -0.0761
     15 C13         9.2423   -4.2358    0.2381 C.ar      1 <0>        -0.0927
     16 C14         8.5265   -3.0603    0.1608 C.ar      1 <0>        -0.1043
     17 C15         7.1348   -3.0866    0.2199 C.ar      1 <0>         0.1136
     18 N2          6.1732   -2.1062    0.1520 N.pl3     1 <0>        -0.5776
     19 H1          6.3415   -1.1517    0.1138 H         1 <0>         0.4205
     20 C16         6.5748   -6.7702    0.9043 C.2       1 <0>         0.5617
     21 O2          7.2146   -7.5287    1.6069 O.2       1 <0>        -0.5407
     22 N3          5.3415   -7.1659    0.5383 N.am      1 <0>        -0.7142
     23 C17         4.5088   -6.3982   -0.3546 C.3       1 <0>         0.1116
     24 C18         4.0259   -5.0975    0.2382 C.3       1 <0>        -0.0858
     25 H2         -0.9594    1.9049    0.0435 H         1 <0>         0.1256
     26 H3         -0.6816   -0.1599    1.3536 H         1 <0>         0.1281
     27 H4          1.4648   -1.3633    1.3180 H         1 <0>         0.1352
     28 H5          3.0600    1.5805   -1.3428 H         1 <0>         0.1252
     29 H6          0.9096    2.7767   -1.2995 H         1 <0>         0.1281
     30 H7          4.4510   -0.1552   -0.1204 H         1 <0>         0.4062
     31 H8          9.1835   -6.3578    0.4846 H         1 <0>         0.1390
     32 H9         10.3187   -4.2095    0.1535 H         1 <0>         0.1398
     33 H10         9.0446   -2.1187    0.0546 H         1 <0>         0.1316
     34 H11         4.9986   -8.0025    0.8895 H         1 <0>         0.4070
     35 H12         5.0762   -6.1798   -1.2592 H         1 <0>         0.0698
     36 H13         3.6420   -7.0004   -0.6270 H         1 <0>         0.0948
     37 H14         3.7001   -5.2762    1.2629 H         1 <0>         0.0859
     38 H15         3.1761   -4.7390   -0.3427 H         1 <0>         0.1076
@<TRIPOS>BOND
     1    1    6 ar
     2    1    2 ar
     3    1   25 1
     4    2    3 ar
     5    2   26 1
     6    3    4 ar
     7    3   27 1
     8    4    5 ar
     9    4    7 1
    10    5    6 ar
    11    5   28 1
    12    6   29 1
    13    7    8 am
    14    7   30 1
    15    8    9 2
    16    8   10 1
    17   10   18 1
    18   10   11 2
    19   11   24 1
    20   11   12 1
    21   12   17 ar
    22   12   13 ar
    23   13   14 ar
    24   13   20 1
    25   14   15 ar
    26   14   31 1
    27   15   16 ar
    28   15   32 1
    29   16   17 ar
    30   16   33 1
    31   17   18 1
    32   18   19 1
    33   20   21 2
    34   20   22 am
    35   22   23 1
    36   22   34 1
    37   23   24 1
    38   23   35 1
    39   23   36 1
    40   24   37 1
    41   24   38 1
@<TRIPOS>MOLECULE
CHEMBL344741
   32    35     0     0     0
SMALL
USER_CHARGES

@<TRIPOS>ATOM
      1 C1         -0.0167    1.3777    0.0096 C.ar      1 <0>        -0.1102
      2 C2          1.1569    2.1051    0.0023 C.ar      1 <0>        -0.0711
      3 C3          2.3930    1.4548   -0.0341 C.ar      1 <0>        -0.0944
      4 C4          2.4120    0.0468   -0.1415 C.ar      1 <0>        -0.0626
      5 C5          1.2120   -0.6828   -0.0633 C.ar      1 <0>         0.0903
      6 C6          0.0021   -0.0041    0.0020 C.ar      1 <0>        -0.0942
      7 N1          1.5432   -2.0226   -0.0897 N.pl3     1 <0>        -0.5756
      8 H1          0.9244   -2.7606    0.0261 H         1 <0>         0.4233
      9 C7          2.8976   -2.1375   -0.3084 C.2       1 <0>         0.1684
     10 C8          3.4472   -0.8962   -0.3744 C.2       1 <0>        -0.1679
     11 C9          4.8599   -0.5269   -0.6585 C.3       1 <0>        -0.0701
     12 C10         4.9764    0.7991   -1.3688 C.3       1 <0>         0.1140
     13 N2          4.8020    1.9371   -0.5006 N.am      1 <0>        -0.7159
     14 C11         3.6217    2.2387    0.0732 C.2       1 <0>         0.5642
     15 O1          3.5739    3.2545    0.7405 O.2       1 <0>        -0.5441
     16 C12         3.6338   -3.4038   -0.4476 C.2       1 <0>         0.0488
     17 C13         3.2074   -4.5129   -1.1216 C.2       1 <0>        -0.1621
     18 C14         4.2111   -5.4853   -1.0025 C.2       1 <0>        -0.1998
     19 C15         5.2142   -4.9546   -0.2681 C.2       1 <0>         0.0096
     20 N3          4.8748   -3.6797    0.0720 N.pl3     1 <0>        -0.5423
     21 H2          5.4177   -3.0698    0.5957 H         1 <0>         0.4175
     22 H3         -0.9637    1.8966    0.0260 H         1 <0>         0.1365
     23 H4          1.1191    3.1842    0.0245 H         1 <0>         0.1353
     24 H5         -0.9248   -0.5566    0.0470 H         1 <0>         0.1285
     25 H6          5.4065   -0.4721    0.2829 H         1 <0>         0.0722
     26 H7          5.3088   -1.3012   -1.2806 H         1 <0>         0.0839
     27 H8          5.9614    0.8613   -1.8315 H         1 <0>         0.0902
     28 H9          4.2221    0.8411   -2.1545 H         1 <0>         0.0707
     29 H10         5.5656    2.5080   -0.3224 H         1 <0>         0.4055
     30 H11         2.2707   -4.6210   -1.6481 H         1 <0>         0.1379
     31 H12         4.1867   -6.4801   -1.4222 H         1 <0>         0.1417
     32 H13         6.1325   -5.4556    0.0004 H         1 <0>         0.1716
@<TRIPOS>BOND
     1    1    6 ar
     2    1    2 ar
     3    1   22 1
     4    2    3 ar
     5    2   23 1
     6    3   14 1
     7    3    4 ar
     8    4   10 1
     9    4    5 ar
    10    5    6 ar
    11    5    7 1
    12    6   24 1
    13    7    8 1
    14    7    9 1
    15    9   10 2
    16    9   16 1
    17   10   11 1
    18   11   12 1
    19   11   25 1
    20   11   26 1
    21   12   13 1
    22   12   27 1
    23   12   28 1
    24   13   14 am
    25   13   29 1
    26   14   15 2
    27   16   20 1
    28   16   17 2
    29   17   18 1
    30   17   30 1
    31   18   19 2
    32   18   31 1
    33   19   20 1
    34   19   32 1
    35   20   21 1
@<TRIPOS>MOLECULE
CHEMBL597927
   64    67     0     0     0
SMALL
USER_CHARGES

@<TRIPOS>ATOM
      1 C1         -1.2128   -3.1056   -1.0484 C.3       1 <0>        -0.1252
      2 C2         -1.4817   -4.0293    0.1116 C.2       1 <0>        -0.0457
      3 C3         -2.0765   -5.2434   -0.0832 C.2       1 <0>        -0.1526
      4 C4         -2.2981   -6.0573    1.0487 C.2       1 <0>         0.4822
      5 O1         -2.8259   -7.1513    0.9279 O.2       1 <0>        -0.5246
      6 N1         -1.9207   -5.6143    2.2632 N.am      1 <0>        -0.4488
      7 H1         -2.0739   -6.1751    3.0396 H         1 <0>         0.4408
      8 N2         -1.3629   -4.4685    2.4191 N.2       1 <0>        -0.2125
      9 C5         -1.1218   -3.6659    1.4199 C.2       1 <0>         0.0662
     10 C6         -0.4576   -2.3367    1.6714 C.3       1 <0>        -0.0120
     11 C7         -0.1750   -2.1870    3.1441 C.ar      1 <0>        -0.0831
     12 C8         -1.1243   -1.6151    3.9741 C.ar      1 <0>        -0.0482
     13 C9         -0.8749   -1.4732    5.3260 C.ar      1 <0>        -0.1499
     14 C10         0.3270   -1.9031    5.8589 C.ar      1 <0>         0.1484
     15 C11         1.2889   -2.4818    5.0253 C.ar      1 <0>        -0.1714
     16 C12         1.0254   -2.6250    3.6612 C.ar      1 <0>        -0.0503
     17 C13         2.5753   -2.9434    5.5851 C.2       1 <0>         0.5720
     18 O2          2.5875   -3.7041    6.5334 O.2       1 <0>        -0.5067
     19 N3          3.7356   -2.5213    5.0448 N.am      1 <0>        -0.6143
     20 C14         3.7407   -1.5011    3.9870 C.3       1 <0>         0.0898
     21 C15         4.6426   -0.3418    4.4285 C.3       1 <0>         0.0937
     22 N4          5.9254   -0.8931    4.8870 N.am      1 <0>        -0.5831
     23 C16         5.9203   -1.9134    5.9448 C.3       1 <0>         0.0626
     24 C17         5.0188   -3.0686    5.5072 C.3       1 <0>         0.0951
     25 C18         7.0857   -0.4710    4.3467 C.2       1 <0>         0.5171
     26 O3          7.0844    0.4308    3.5357 O.2       1 <0>        -0.5230
     27 C19         8.3848   -1.1196    4.7502 C.3       1 <0>         0.0333
     28 C20         8.3013   -2.6445    4.5287 C.3       1 <0>        -0.1454
     29 C21         8.9784   -2.8344    3.1458 C.3       1 <0>        -0.1431
     30 C22        10.0913   -1.7580    3.1919 C.3       1 <0>        -0.0065
     31 N5          9.4816   -0.6147    3.9040 N.4       1 <0>        -0.5008
     32 C23         8.6815   -0.8193    6.2208 C.3       1 <0>        -0.1841
     33 F1          0.5709   -1.7640    7.1805 F         1 <0>        -0.1245
     34 C24        -2.4831   -5.6988   -1.4610 C.3       1 <0>        -0.1021
     35 H2         -0.2264   -3.3179   -1.4608 H         1 <0>         0.0872
     36 H3         -1.9691   -3.2593   -1.8181 H         1 <0>         0.0841
     37 H4         -1.2483   -2.0716   -0.7054 H         1 <0>         0.0807
     38 H5          0.4783   -2.2872    1.1149 H         1 <0>         0.1021
     39 H6         -1.1176   -1.5331    1.3445 H         1 <0>         0.1066
     40 H7         -2.0643   -1.2778    3.5630 H         1 <0>         0.1402
     41 H8         -1.6196   -1.0256    5.9675 H         1 <0>         0.1466
     42 H9          1.7623   -3.0744    3.0121 H         1 <0>         0.1341
     43 H10         4.1263   -1.9334    3.0637 H         1 <0>         0.0815
     44 H11         2.7265   -1.1351    3.8269 H         1 <0>         0.1130
     45 H12         4.8129    0.3301    3.5873 H         1 <0>         0.1159
     46 H13         4.1660    0.2024    5.2439 H         1 <0>         0.0902
     47 H14         6.9345   -2.2793    6.1049 H         1 <0>         0.1108
     48 H15         5.5347   -1.4811    6.8681 H         1 <0>         0.0980
     49 H16         4.8485   -3.7375    6.3508 H         1 <0>         0.1186
     50 H17         5.4975   -3.6150    4.6946 H         1 <0>         0.0777
     51 H18         8.8520   -3.1773    5.3039 H         1 <0>         0.1207
     52 H19         7.2624   -2.9731    4.4976 H         1 <0>         0.1195
     53 H20         9.4048   -3.8333    3.0538 H         1 <0>         0.1259
     54 H21         8.2759   -2.6354    2.3365 H         1 <0>         0.0994
     55 H22        10.9562   -2.1297    3.7414 H         1 <0>         0.1398
     56 H23        10.3791   -1.4662    2.1819 H         1 <0>         0.1421
     57 H24         9.1173    0.0468    3.2349 H         1 <0>         0.4353
     58 H25         7.9131   -1.2734    6.8465 H         1 <0>         0.1167
     59 H26         9.6557   -1.2299    6.4861 H         1 <0>         0.1019
     60 H27         8.6870    0.2594    6.3774 H         1 <0>         0.0935
     61 H28        -1.6576   -6.2402   -1.9231 H         1 <0>         0.0800
     62 H29        -3.3506   -6.3544   -1.3857 H         1 <0>         0.0804
     63 H30        -2.7352   -4.8312   -2.0708 H         1 <0>         0.0798
     64 H31        10.1762   -0.1646    4.4811 H         1 <0>         0.4343
@<TRIPOS>BOND
     1    1    2 1
     2    1   35 1
     3    1   36 1
     4    1   37 1
     5    2    9 1
     6    2    3 2
     7    3    4 1
     8    3   34 1
     9    4    5 2
    10    4    6 am
    11    6    7 1
    12    6    8 1
    13    8    9 2
    14    9   10 1
    15   10   11 1
    16   10   38 1
    17   10   39 1
    18   11   16 ar
    19   11   12 ar
    20   12   13 ar
    21   12   40 1
    22   13   14 ar
    23   13   41 1
    24   14   15 ar
    25   14   33 1
    26   15   16 ar
    27   15   17 1
    28   16   42 1
    29   17   18 2
    30   17   19 am
    31   19   24 1
    32   19   20 1
    33   20   21 1
    34   20   43 1
    35   20   44 1
    36   21   22 1
    37   21   45 1
    38   21   46 1
    39   22   23 1
    40   22   25 am
    41   23   24 1
    42   23   47 1
    43   23   48 1
    44   24   49 1
    45   24   50 1
    46   25   26 2
    47   25   27 1
    48   27   31 1
    49   27   28 1
    50   27   32 1
    51   28   29 1
    52   28   51 1
    53   28   52 1
    54   29   30 1
    55   29   53 1
    56   29   54 1
    57   30   31 1
    58   30   55 1
    59   30   56 1
    60   31   57 1
    61   31   64 1
    62   32   58 1
    63   32   59 1
    64   32   60 1
    65   34   61 1
    66   34   62 1
    67   34   63 1
@<TRIPOS>MOLECULE
CHEMBL597927__1
   63    66     0     0     0
SMALL
USER_CHARGES

@<TRIPOS>ATOM
      1 C1         -2.5440   -3.2014   -0.4881 C.3       1 <0>        -0.1082
      2 C2         -2.6090   -1.9193   -1.2775 C.ar      1 <0>        -0.0669
      3 C3         -3.3343   -1.8431   -2.4571 C.ar      1 <0>        -0.2000
      4 C4         -3.3508   -0.6271   -3.1349 C.ar      1 <0>         0.3660
      5 O1         -4.0464   -0.5022   -4.2932 O.3       1 <0>        -0.6932
      6 N1         -2.6854    0.4067   -2.6444 N.ar      1 <0>        -0.3580
      7 N2         -2.0157    0.3307   -1.5522 N.ar      1 <0>        -0.2005
      8 C5         -1.9500   -0.7787   -0.8428 C.ar      1 <0>        -0.0746
      9 C6         -1.1538   -0.8095    0.4363 C.3       1 <0>        -0.0029
     10 C7         -2.0671   -0.5353    1.6032 C.ar      1 <0>        -0.0682
     11 C8         -2.3641    0.7705    1.9552 C.ar      1 <0>        -0.0483
     12 C9         -3.2005    1.0326    3.0236 C.ar      1 <0>        -0.1518
     13 C10        -3.7476   -0.0105    3.7489 C.ar      1 <0>         0.1342
     14 C11        -3.4514   -1.3311    3.3976 C.ar      1 <0>        -0.1780
     15 C12        -2.6088   -1.5855    2.3132 C.ar      1 <0>        -0.0663
     16 C13        -4.0304   -2.4513    4.1664 C.2       1 <0>         0.5769
     17 O2         -5.2319   -2.5111    4.3422 O.2       1 <0>        -0.5106
     18 N3         -3.2269   -3.4073    4.6731 N.am      1 <0>        -0.6151
     19 C14        -1.7656   -3.2866    4.5731 C.3       1 <0>         0.0882
     20 C15        -1.1674   -3.3943    5.9812 C.3       1 <0>         0.0942
     21 N4         -1.7367   -4.5759    6.6441 N.am      1 <0>        -0.5806
     22 C16        -3.1980   -4.6967    6.7442 C.3       1 <0>         0.0630
     23 C17        -3.7961   -4.5862    5.3410 C.3       1 <0>         0.0952
     24 C18        -0.9332   -5.5319    7.1509 C.2       1 <0>         0.5154
     25 O3          0.2699   -5.3784    7.1456 O.2       1 <0>        -0.5254
     26 C19        -1.5295   -6.7916    7.7241 C.3       1 <0>         0.0331
     27 C20        -2.4176   -7.4805    6.6666 C.3       1 <0>        -0.1439
     28 C21        -1.4741   -8.5545    6.0639 C.3       1 <0>        -0.1434
     29 C22        -0.6555   -8.9848    7.3066 C.3       1 <0>        -0.0059
     30 N5         -0.4564   -7.7390    8.0774 N.4       1 <0>        -0.5005
     31 C23        -2.3579   -6.4567    8.9661 C.3       1 <0>        -0.1849
     32 F1         -4.5649    0.2458    4.7937 F         1 <0>        -0.1310
     33 C24        -4.0808   -3.0394   -2.9889 C.3       1 <0>        -0.0807
     34 H1         -3.3112   -3.1907    0.2862 H         1 <0>         0.0609
     35 H2         -2.7121   -4.0473   -1.1545 H         1 <0>         0.0650
     36 H3         -1.5616   -3.2934   -0.0249 H         1 <0>         0.0606
     37 H4         -0.6962   -1.7915    0.5560 H         1 <0>         0.0764
     38 H5         -0.3749   -0.0480    0.3979 H         1 <0>         0.0871
     39 H6         -1.9395    1.5884    1.3920 H         1 <0>         0.1464
     40 H7         -3.4272    2.0536    3.2929 H         1 <0>         0.1437
     41 H8         -2.3787   -2.6031    2.0340 H         1 <0>         0.1357
     42 H9         -1.3743   -4.0885    3.9470 H         1 <0>         0.0818
     43 H10        -1.5072   -2.3208    4.1387 H         1 <0>         0.1168
     44 H11        -0.0848   -3.5000    5.9116 H         1 <0>         0.1153
     45 H12        -1.4141   -2.4997    6.5529 H         1 <0>         0.0903
     46 H13        -3.4564   -5.6624    7.1785 H         1 <0>         0.1088
     47 H14        -3.5893   -3.8948    7.3702 H         1 <0>         0.0974
     48 H15        -4.8783   -4.4785    5.4138 H         1 <0>         0.1176
     49 H16        -3.5527   -5.4828    4.7709 H         1 <0>         0.0765
     50 H17        -3.2835   -7.9477    7.1357 H         1 <0>         0.1195
     51 H18        -2.7293   -6.7686    5.9023 H         1 <0>         0.1204
     52 H19        -2.0431   -9.3927    5.6618 H         1 <0>         0.1255
     53 H20        -0.8271   -8.1219    5.3008 H         1 <0>         0.1007
     54 H21        -1.2148   -9.7108    7.8967 H         1 <0>         0.1384
     55 H22         0.3051   -9.4007    7.0029 H         1 <0>         0.1411
     56 H23         0.4403   -7.3373    7.8479 H         1 <0>         0.4353
     57 H24        -3.2024   -5.8293    8.6812 H         1 <0>         0.1186
     58 H25        -2.7258   -7.3784    9.4168 H         1 <0>         0.1003
     59 H26        -1.7356   -5.9238    9.6850 H         1 <0>         0.0926
     60 H27        -5.0938   -3.0437   -2.5865 H         1 <0>         0.0523
     61 H28        -4.1222   -2.9876   -4.0768 H         1 <0>         0.0672
     62 H29        -3.5664   -3.9520   -2.6878 H         1 <0>         0.0479
     63 H30        -0.4936   -7.9412    9.0653 H         1 <0>         0.4327
@<TRIPOS>BOND
     1    1    2 1
     2    1   34 1
     3    1   35 1
     4    1   36 1
     5    2    8 ar
     6    2    3 ar
     7    3    4 ar
     8    3   33 1
     9    4    5 1
    10    4    6 ar
    11    6    7 ar
    12    7    8 ar
    13    8    9 1
    14    9   10 1
    15    9   37 1
    16    9   38 1
    17   10   15 ar
    18   10   11 ar
    19   11   12 ar
    20   11   39 1
    21   12   13 ar
    22   12   40 1
    23   13   14 ar
    24   13   32 1
    25   14   15 ar
    26   14   16 1
    27   15   41 1
    28   16   17 2
    29   16   18 am
    30   18   23 1
    31   18   19 1
    32   19   20 1
    33   19   42 1
    34   19   43 1
    35   20   21 1
    36   20   44 1
    37   20   45 1
    38   21   22 1
    39   21   24 am
    40   22   23 1
    41   22   46 1
    42   22   47 1
    43   23   48 1
    44   23   49 1
    45   24   25 2
    46   24   26 1
    47   26   30 1
    48   26   27 1
    49   26   31 1
    50   27   28 1
    51   27   50 1
    52   27   51 1
    53   28   29 1
    54   28   52 1
    55   28   53 1
    56   29   30 1
    57   29   54 1
    58   29   55 1
    59   30   56 1
    60   30   63 1
    61   31   57 1
    62   31   58 1
    63   31   59 1
    64   33   60 1
    65   33   61 1
    66   33   62 1
@<TRIPOS>MOLECULE
CHEMBL589257
   53    57     0     0     0
SMALL
USER_CHARGES

@<TRIPOS>ATOM
      1 C1          4.9540   -1.9530   -7.8531 C.ar      1 <0>        -0.2925
      2 C2          5.4678   -0.8825   -7.1381 C.ar      1 <0>         0.1949
      3 N1          5.9598   -1.0913   -5.9282 N.ar      1 <0>        -0.5709
      4 C3          5.9648   -2.3061   -5.3995 C.ar      1 <0>         0.5655
      5 N2          5.4818   -3.3505   -6.0564 N.ar      1 <0>        -0.5721
      6 C4          4.9749   -3.2103   -7.2701 C.ar      1 <0>         0.1941
      7 N3          6.4874   -2.4887   -4.1309 N.pl3     1 <0>        -0.5849
      8 C5          7.0259   -1.3506   -3.3729 C.3       1 <0>         0.1137
      9 C6          6.3104   -1.2817   -2.0180 C.3       1 <0>         0.0990
     10 N4          6.3363   -2.6170   -1.4048 N.am      1 <0>        -0.6086
     11 C7          5.7978   -3.7551   -2.1629 C.3       1 <0>         0.0874
     12 C8          6.5082   -3.8231   -3.5155 C.3       1 <0>         0.1129
     13 C9          6.8452   -2.7948   -0.1695 C.2       1 <0>         0.5649
     14 O1          7.4145   -1.8785    0.3910 O.2       1 <0>        -0.5152
     15 C10         6.7111   -4.1028    0.5031 C.ar      1 <0>        -0.1634
     16 C11         5.4825   -4.7668    0.5080 C.ar      1 <0>        -0.0542
     17 C12         5.3642   -5.9876    1.1373 C.ar      1 <0>        -0.1034
     18 C13         6.4592   -6.5572    1.7647 C.ar      1 <0>        -0.0713
     19 C14         7.6792   -5.9078    1.7658 C.ar      1 <0>        -0.1502
     20 C15         7.8151   -4.6852    1.1333 C.ar      1 <0>         0.1546
     21 F1          9.0091   -4.0530    1.1297 F         1 <0>        -0.1198
     22 C16         4.0386   -6.7044    1.1427 C.3       1 <0>        -0.0389
     23 C17         3.1796   -6.1635    2.2565 C.2       1 <0>         0.0073
     24 C18         2.4087   -5.1098    2.0313 C.2       1 <0>         0.0974
     25 N5          1.5989   -4.5700    3.0170 N.am      1 <0>        -0.6434
     26 H1          1.0461   -3.7980    2.8186 H         1 <0>         0.4271
     27 C19         1.5751   -5.1142    4.2530 C.2       1 <0>         0.5823
     28 O2          0.8655   -4.6459    5.1255 O.2       1 <0>        -0.4970
     29 C20         2.4195   -6.2782    4.5213 C.2       1 <0>        -0.0373
     30 N6          3.2053   -6.7823    3.5020 N.pl3     1 <0>        -0.3381
     31 C21         3.8867   -7.8528    3.9793 C.2       1 <0>         0.0934
     32 C22         3.5484   -8.0465    5.2812 C.2       1 <0>        -0.0837
     33 C23         2.6298   -7.0557    5.6391 C.2       1 <0>        -0.0751
     34 Cl1         4.1598   -9.2956    6.3203 Cl        1 <0>        -0.0111
     35 Cl2         5.0088   -8.8198    3.0741 Cl        1 <0>         0.0193
     36 H2          4.5422   -1.8098   -8.8412 H         1 <0>         0.1449
     37 H3          5.4667    0.1100   -7.5639 H         1 <0>         0.1679
     38 H4          4.5821   -4.0652   -7.8004 H         1 <0>         0.1678
     39 H5          8.0954   -1.4894   -3.2151 H         1 <0>         0.0727
     40 H6          6.8519   -0.4276   -3.9259 H         1 <0>         0.1133
     41 H7          6.8229   -0.5712   -1.3694 H         1 <0>         0.1084
     42 H8          5.2773   -0.9668   -2.1655 H         1 <0>         0.0757
     43 H9          5.9718   -4.6781   -1.6099 H         1 <0>         0.1029
     44 H10         4.7283   -3.6163   -2.3206 H         1 <0>         0.0775
     45 H11         5.9924   -4.5325   -4.1626 H         1 <0>         0.1139
     46 H12         7.5400   -4.1419   -3.3681 H         1 <0>         0.0713
     47 H13         4.6266   -4.3245    0.0200 H         1 <0>         0.1385
     48 H14         6.3594   -7.5138    2.2561 H         1 <0>         0.1435
     49 H15         8.5289   -6.3576    2.2578 H         1 <0>         0.1473
     50 H16         3.5368   -6.5475    0.1879 H         1 <0>         0.1113
     51 H17         4.2029   -7.7710    1.2959 H         1 <0>         0.1036
     52 H18         2.4120   -4.6582    1.0502 H         1 <0>         0.1825
     53 H19         2.1644   -6.9302    6.6056 H         1 <0>         0.1742
@<TRIPOS>BOND
     1    1    6 ar
     2    1    2 ar
     3    1   36 1
     4    2    3 ar
     5    2   37 1
     6    3    4 ar
     7    4    5 ar
     8    4    7 1
     9    5    6 ar
    10    6   38 1
    11    7   12 1
    12    7    8 1
    13    8    9 1
    14    8   39 1
    15    8   40 1
    16    9   10 1
    17    9   41 1
    18    9   42 1
    19   10   11 1
    20   10   13 am
    21   11   12 1
    22   11   43 1
    23   11   44 1
    24   12   45 1
    25   12   46 1
    26   13   14 2
    27   13   15 1
    28   15   20 ar
    29   15   16 ar
    30   16   17 ar
    31   16   47 1
    32   17   18 ar
    33   17   22 1
    34   18   19 ar
    35   18   48 1
    36   19   20 ar
    37   19   49 1
    38   20   21 1
    39   22   23 1
    40   22   50 1
    41   22   51 1
    42   23   30 1
    43   23   24 2
    44   24   25 1
    45   24   52 1
    46   25   26 1
    47   25   27 am
    48   27   28 2
    49   27   29 1
    50   29   33 2
    51   29   30 1
    52   30   31 1
    53   31   32 2
    54   31   35 1
    55   32   33 1
    56   32   34 1
    57   33   53 1
@<TRIPOS>MOLECULE
CHEMBL591515
   55    59     0     0     0
SMALL
USER_CHARGES

@<TRIPOS>ATOM
      1 C1          3.8919   -2.1286   -8.2421 C.ar      1 <0>        -0.1753
      2 C2          5.2702   -2.1597   -8.1177 C.ar      1 <0>        -0.0216
      3 C3          5.8200   -2.2393   -6.8335 C.ar      1 <0>        -0.0801
      4 C4          4.9531   -2.2842   -5.7277 C.ar      1 <0>         0.4241
      5 N1          3.6418   -2.2519   -5.9042 N.ar      1 <0>        -0.4898
      6 C5          3.1042   -2.1766   -7.1065 C.ar      1 <0>         0.1413
      7 N2          5.4736   -2.3631   -4.4477 N.pl3     1 <0>        -0.6642
      8 C6          5.8614   -1.1456   -3.7216 C.3       1 <0>         0.1332
      9 C7          5.1216   -1.1194   -2.3784 C.3       1 <0>         0.0989
     10 N3          5.2959   -2.4220   -1.7208 N.am      1 <0>        -0.6011
     11 C8          4.9081   -3.6395   -2.4468 C.3       1 <0>         0.0839
     12 C9          5.6427   -3.6654   -3.7879 C.3       1 <0>         0.1334
     13 C10         5.8027   -2.4988   -0.4743 C.2       1 <0>         0.5639
     14 O1          6.0784   -1.4826    0.1335 O.2       1 <0>        -0.5183
     15 C11         6.0233   -3.8174    0.1532 C.ar      1 <0>        -0.1582
     16 C12         4.9774   -4.7393    0.2355 C.ar      1 <0>        -0.0572
     17 C13         5.1901   -5.9686    0.8220 C.ar      1 <0>        -0.1011
     18 C14         6.4368   -6.2920    1.3302 C.ar      1 <0>        -0.0679
     19 C15         7.4780   -5.3864    1.2541 C.ar      1 <0>        -0.1484
     20 C16         7.2819   -4.1514    0.6629 C.ar      1 <0>         0.1509
     21 F1          8.3013   -3.2683    0.5835 F         1 <0>        -0.1217
     22 C17         4.0617   -6.9636    0.9109 C.3       1 <0>        -0.0412
     23 C18         3.2311   -6.6732    2.1343 C.2       1 <0>         0.0069
     24 C19         2.2829   -5.7500    2.0736 C.2       1 <0>         0.0984
     25 N4          1.4892   -5.4415    3.1661 N.am      1 <0>        -0.6432
     26 H1          0.8032   -4.7601    3.0876 H         1 <0>         0.4273
     27 C20         1.6658   -6.0855    4.3402 C.2       1 <0>         0.5823
     28 O2          0.9720   -5.8206    5.3058 O.2       1 <0>        -0.4971
     29 C21         2.7080   -7.1084    4.4272 C.2       1 <0>        -0.0374
     30 N5          3.4693   -7.3830    3.3067 N.pl3     1 <0>        -0.3382
     31 C22         4.3552   -8.3594    3.6226 C.2       1 <0>         0.0932
     32 C23         4.1721   -8.7183    4.9205 C.2       1 <0>        -0.0841
     33 C24         3.1417   -7.9317    5.4432 C.2       1 <0>        -0.0754
     34 Cl1         5.0689   -9.9300    5.7813 Cl        1 <0>        -0.0115
     35 Cl2         5.5320   -9.0414    2.5439 Cl        1 <0>         0.0172
     36 C25         7.2396   -2.2748   -6.6490 C.1       1 <0>         0.2577
     37 N6          8.3658   -2.3030   -6.5027 N.1       1 <0>        -0.4017
     38 H2          3.4352   -2.0630   -9.2186 H         1 <0>         0.1495
     39 H3          5.9055   -2.1237   -8.9903 H         1 <0>         0.1469
     40 H4          2.0291   -2.1519   -7.2058 H         1 <0>         0.1663
     41 H5          6.9373   -1.1510   -3.5466 H         1 <0>         0.0644
     42 H6          5.5880   -0.2678   -4.3071 H         1 <0>         0.0857
     43 H7          5.5360   -0.3328   -1.7478 H         1 <0>         0.1024
     44 H8          4.0609   -0.9345   -2.5485 H         1 <0>         0.0790
     45 H9          5.1815   -4.5174   -1.8614 H         1 <0>         0.0979
     46 H10         3.8322   -3.6341   -2.6218 H         1 <0>         0.0823
     47 H11         5.2248   -4.4512   -4.4171 H         1 <0>         0.0861
     48 H12         6.7026   -3.8544   -3.6177 H         1 <0>         0.0634
     49 H13         4.0038   -4.4895   -0.1595 H         1 <0>         0.1395
     50 H14         6.5963   -7.2567    1.7887 H         1 <0>         0.1396
     51 H15         8.4477   -5.6451    1.6532 H         1 <0>         0.1470
     52 H16         3.4373   -6.8853    0.0209 H         1 <0>         0.1107
     53 H17         4.4707   -7.9715    0.9802 H         1 <0>         0.1046
     54 H18         2.1242   -5.2221    1.1448 H         1 <0>         0.1825
     55 H19         2.7517   -7.9699    6.4496 H         1 <0>         0.1740
@<TRIPOS>BOND
     1    1    6 ar
     2    1    2 ar
     3    1   38 1
     4    2    3 ar
     5    2   39 1
     6    3    4 ar
     7    3   36 1
     8    4    5 ar
     9    4    7 1
    10    5    6 ar
    11    6   40 1
    12    7   12 1
    13    7    8 1
    14    8    9 1
    15    8   41 1
    16    8   42 1
    17    9   10 1
    18    9   43 1
    19    9   44 1
    20   10   11 1
    21   10   13 am
    22   11   12 1
    23   11   45 1
    24   11   46 1
    25   12   47 1
    26   12   48 1
    27   13   14 2
    28   13   15 1
    29   15   20 ar
    30   15   16 ar
    31   16   17 ar
    32   16   49 1
    33   17   18 ar
    34   17   22 1
    35   18   19 ar
    36   18   50 1
    37   19   20 ar
    38   19   51 1
    39   20   21 1
    40   22   23 1
    41   22   52 1
    42   22   53 1
    43   23   30 1
    44   23   24 2
    45   24   25 1
    46   24   54 1
    47   25   26 1
    48   25   27 am
    49   27   28 2
    50   27   29 1
    51   29   33 2
    52   29   30 1
    53   30   31 1
    54   31   32 2
    55   31   35 1
    56   32   33 1
    57   32   34 1
    58   33   55 1
    59   36   37 3
@<TRIPOS>MOLECULE
CHEMBL598957
   71    75     0     0     0
SMALL
USER_CHARGES

@<TRIPOS>ATOM
      1 C1         -1.0182   -2.1438   -1.8440 C.3       1 <0>        -0.1237
      2 C2         -1.5761   -2.9218   -0.6801 C.2       1 <0>        -0.0482
      3 C3         -2.3117   -4.0547   -0.8833 C.2       1 <0>        -0.1503
      4 C4         -2.8032   -4.7332    0.2528 C.2       1 <0>         0.4817
      5 O1         -3.4655   -5.7506    0.1250 O.2       1 <0>        -0.5218
      6 N1         -2.5334   -4.2465    1.4792 N.am      1 <0>        -0.4483
      7 H1         -2.8722   -4.7143    2.2586 H         1 <0>         0.4415
      8 N2         -1.8389   -3.1792    1.6428 N.2       1 <0>        -0.2108
      9 C5         -1.3480   -2.5034    0.6413 C.2       1 <0>         0.0628
     10 C6         -0.5351   -1.2618    0.9033 C.3       1 <0>        -0.0093
     11 C7         -0.4367   -1.0300    2.3891 C.ar      1 <0>        -0.0851
     12 C8         -1.3951   -0.2660    3.0332 C.ar      1 <0>        -0.0481
     13 C9         -1.3139   -0.0475    4.3954 C.ar      1 <0>        -0.1491
     14 C10        -0.2727   -0.5924    5.1249 C.ar      1 <0>         0.1509
     15 C11         0.6976   -1.3652    4.4795 C.ar      1 <0>        -0.1716
     16 C12         0.6040   -1.5841    3.1034 C.ar      1 <0>        -0.0540
     17 C13         1.8132   -1.9508    5.2501 C.2       1 <0>         0.5692
     18 O2          1.5855   -2.5925    6.2571 O.2       1 <0>        -0.4991
     19 N3          3.0838   -1.7736    4.8367 N.am      1 <0>        -0.6127
     20 C14         3.3843   -0.8936    3.6987 C.3       1 <0>         0.0840
     21 C15         4.4052    0.1586    4.1492 C.3       1 <0>         0.0796
     22 N4          5.5149   -0.5244    4.8287 N.am      1 <0>        -0.6004
     23 C16         5.2144   -1.4045    5.9666 C.3       1 <0>         0.0947
     24 C17         4.1940   -2.4523    5.5197 C.3       1 <0>         0.0980
     25 C18         6.7854   -0.3473    4.4153 C.2       1 <0>         0.5163
     26 O3          7.6864   -0.9642    4.9431 O.2       1 <0>        -0.4812
     27 C19         7.0865    0.6173    3.2973 C.3       1 <0>        -0.0164
     28 C20         8.5467    1.0993    3.2761 C.3       1 <0>        -0.1104
     29 C21         7.9995    2.4915    2.9195 C.3       1 <0>        -0.1534
     30 C22         6.6941    2.0700    3.6146 C.3       1 <0>        -0.1299
     31 N5          6.6008    0.1481    1.9927 N.4       1 <0>        -0.4834
     32 C23         7.2245   -1.1431    1.6735 C.3       1 <0>         0.0220
     33 C24         6.7186   -1.6317    0.3148 C.3       1 <0>        -0.2148
     34 C25         5.9100   -2.9303    0.2874 C.3       1 <0>        -0.1670
     35 C26         7.3411   -2.9088   -0.2532 C.3       1 <0>        -0.1446
     36 F1         -0.1932   -0.3784    6.4565 F         1 <0>        -0.1221
     37 C27        -2.5897   -4.5633   -2.2744 C.3       1 <0>        -0.1028
     38 H2         -0.0271   -2.5232   -2.0930 H         1 <0>         0.0855
     39 H3         -1.6770   -2.2558   -2.7051 H         1 <0>         0.0843
     40 H4         -0.9469   -1.0898   -1.5757 H         1 <0>         0.0796
     41 H5          0.4648   -1.3879    0.4882 H         1 <0>         0.0992
     42 H6         -1.0184   -0.4053    0.4331 H         1 <0>         0.1057
     43 H7         -2.2101    0.1617    2.4681 H         1 <0>         0.1403
     44 H8         -2.0646    0.5501    4.8912 H         1 <0>         0.1473
     45 H9          1.3479   -2.1830    2.5990 H         1 <0>         0.1333
     46 H10         3.8016   -1.4819    2.8815 H         1 <0>         0.0752
     47 H11         2.4711   -0.3991    3.3676 H         1 <0>         0.1164
     48 H12         4.7839    0.6965    3.2800 H         1 <0>         0.0734
     49 H13         3.9302    0.8583    4.8369 H         1 <0>         0.1045
     50 H14         6.1276   -1.8990    6.2978 H         1 <0>         0.1169
     51 H15         4.7970   -0.8162    6.7838 H         1 <0>         0.0903
     52 H16         3.8155   -2.9870    6.3909 H         1 <0>         0.1180
     53 H17         4.6704   -3.1542    4.8352 H         1 <0>         0.0781
     54 H18         9.0343    1.0581    4.2500 H         1 <0>         0.1332
     55 H19         9.1438    0.6486    2.4833 H         1 <0>         0.1002
     56 H20         8.5188    3.3069    3.4232 H         1 <0>         0.1081
     57 H21         7.8899    2.6562    1.8476 H         1 <0>         0.0971
     58 H22         5.7956    2.4029    3.0951 H         1 <0>         0.1024
     59 H23         6.6753    2.2941    4.6811 H         1 <0>         0.1304
     60 H24         5.5984    0.0381    2.0268 H         1 <0>         0.4224
     61 H25         8.3074   -1.0243    1.6367 H         1 <0>         0.1413
     62 H26         6.9648   -1.8717    2.4414 H         1 <0>         0.1289
     63 H27         6.4402   -0.8501   -0.3920 H         1 <0>         0.1295
     64 H28         5.7384   -3.4364    1.2374 H         1 <0>         0.1043
     65 H29         5.0992   -3.0031   -0.4374 H         1 <0>         0.1126
     66 H30         7.4719   -2.9674   -1.3337 H         1 <0>         0.1155
     67 H31         8.1111   -3.4008    0.3412 H         1 <0>         0.1088
     68 H32        -1.7981   -5.2495   -2.5753 H         1 <0>         0.0804
     69 H33        -3.5467   -5.0849   -2.2860 H         1 <0>         0.0811
     70 H34        -2.6254   -3.7232   -2.9679 H         1 <0>         0.0798
     71 H35         6.8412    0.8226    1.2819 H         1 <0>         0.4339
@<TRIPOS>BOND
     1    1    2 1
     2    1   38 1
     3    1   39 1
     4    1   40 1
     5    2    9 1
     6    2    3 2
     7    3    4 1
     8    3   37 1
     9    4    5 2
    10    4    6 am
    11    6    7 1
    12    6    8 1
    13    8    9 2
    14    9   10 1
    15   10   11 1
    16   10   41 1
    17   10   42 1
    18   11   16 ar
    19   11   12 ar
    20   12   13 ar
    21   12   43 1
    22   13   14 ar
    23   13   44 1
    24   14   15 ar
    25   14   36 1
    26   15   16 ar
    27   15   17 1
    28   16   45 1
    29   17   18 2
    30   17   19 am
    31   19   24 1
    32   19   20 1
    33   20   21 1
    34   20   46 1
    35   20   47 1
    36   21   22 1
    37   21   48 1
    38   21   49 1
    39   22   23 1
    40   22   25 am
    41   23   24 1
    42   23   50 1
    43   23   51 1
    44   24   52 1
    45   24   53 1
    46   25   26 2
    47   25   27 1
    48   27   30 1
    49   27   28 1
    50   27   31 1
    51   28   29 1
    52   28   54 1
    53   28   55 1
    54   29   30 1
    55   29   56 1
    56   29   57 1
    57   30   58 1
    58   30   59 1
    59   31   32 1
    60   31   60 1
    61   31   71 1
    62   32   33 1
    63   32   61 1
    64   32   62 1
    65   33   35 1
    66   33   34 1
    67   33   63 1
    68   34   35 1
    69   34   64 1
    70   34   65 1
    71   35   66 1
    72   35   67 1
    73   37   68 1
    74   37   69 1
    75   37   70 1
@<TRIPOS>MOLECULE
CHEMBL598957__1
   70    74     0     0     0
SMALL
USER_CHARGES

@<TRIPOS>ATOM
      1 C1         -1.7877   -0.1296    0.8269 C.3       1 <0>        -0.1066
      2 C2         -1.3757    1.2589    0.4104 C.ar      1 <0>        -0.0684
      3 C3         -2.0678    1.9428   -0.5778 C.ar      1 <0>        -0.1983
      4 C4         -1.6321    3.2221   -0.9125 C.ar      1 <0>         0.3663
      5 O1         -2.2766    3.9318   -1.8728 O.3       1 <0>        -0.6905
      6 N1         -0.5868    3.7433   -0.2897 N.ar      1 <0>        -0.3572
      7 N2          0.0501    3.1059    0.6243 N.ar      1 <0>        -0.2004
      8 C5         -0.2964    1.8931    1.0082 C.ar      1 <0>        -0.0776
      9 C6          0.4836    1.1936    2.0914 C.3       1 <0>        -0.0002
     10 C7         -0.1777    1.4369    3.4235 C.ar      1 <0>        -0.0701
     11 C8          0.0931    2.5988    4.1262 C.ar      1 <0>        -0.0481
     12 C9         -0.5081    2.8315    5.3487 C.ar      1 <0>        -0.1511
     13 C10        -1.3861    1.9030    5.8782 C.ar      1 <0>         0.1364
     14 C11        -1.6634    0.7282    5.1726 C.ar      1 <0>        -0.1781
     15 C12        -1.0544    0.5046    3.9358 C.ar      1 <0>        -0.0697
     16 C13        -2.5992   -0.2692    5.7302 C.2       1 <0>         0.5741
     17 O2         -3.7009    0.0768    6.1102 O.2       1 <0>        -0.5033
     18 N3         -2.2317   -1.5629    5.8178 N.am      1 <0>        -0.6137
     19 C14        -0.8604   -1.9750    5.4866 C.3       1 <0>         0.0832
     20 C15        -0.2724   -2.7296    6.6854 C.3       1 <0>         0.0774
     21 N4         -1.2356   -3.7534    7.1143 N.am      1 <0>        -0.5973
     22 C16        -2.6069   -3.3412    7.4455 C.3       1 <0>         0.0955
     23 C17        -3.1933   -2.5859    6.2520 C.3       1 <0>         0.0979
     24 C18        -0.8681   -5.0471    7.2018 C.2       1 <0>         0.5156
     25 O3         -1.6841   -5.8897    7.5103 O.2       1 <0>        -0.4868
     26 C19         0.5566   -5.4467    6.9165 C.3       1 <0>        -0.0155
     27 C20         0.9624   -6.7829    7.5605 C.3       1 <0>        -0.1104
     28 C21         2.3167   -6.1278    7.8794 C.3       1 <0>        -0.1531
     29 C22         1.5822   -4.7771    7.8465 C.3       1 <0>        -0.1314
     30 N5          0.9022   -5.3490    5.4921 N.4       1 <0>        -0.4837
     31 C23         0.1201   -6.3316    4.7300 C.3       1 <0>         0.0229
     32 C24         0.4800   -6.2298    3.2464 C.3       1 <0>        -0.2163
     33 C25        -0.6255   -5.8017    2.2791 C.3       1 <0>        -0.1653
     34 C26        -0.1440   -7.2539    2.2963 C.3       1 <0>        -0.1458
     35 F1         -1.9734    2.1303    7.0735 F         1 <0>        -0.1289
     36 C27        -3.2541    1.3206   -1.2681 C.3       1 <0>        -0.0816
     37 H1         -2.4508   -0.0683    1.6899 H         1 <0>         0.0610
     38 H2         -2.3084   -0.6167    0.0025 H         1 <0>         0.0652
     39 H3         -0.9020   -0.7079    1.0896 H         1 <0>         0.0581
     40 H4          0.5079    0.1230    1.8880 H         1 <0>         0.0738
     41 H5          1.5017    1.5822    2.1147 H         1 <0>         0.0861
     42 H6          0.7779    3.3269    3.7171 H         1 <0>         0.1467
     43 H7         -0.2917    3.7396    5.8917 H         1 <0>         0.1443
     44 H8         -1.2669   -0.3989    3.3836 H         1 <0>         0.1345
     45 H9         -0.8755   -2.6288    4.6145 H         1 <0>         0.0747
     46 H10        -0.2544   -1.0939    5.2759 H         1 <0>         0.1200
     47 H11         0.6633   -3.2068    6.3941 H         1 <0>         0.0752
     48 H12        -0.0912   -2.0323    7.5034 H         1 <0>         0.1042
     49 H13        -3.2129   -4.2224    7.6561 H         1 <0>         0.1148
     50 H14        -2.5918   -2.6875    8.3175 H         1 <0>         0.0894
     51 H15        -4.1276   -2.1080    6.5468 H         1 <0>         0.1170
     52 H16        -3.3783   -3.2841    5.4357 H         1 <0>         0.0772
     53 H17         0.3800   -7.0352    8.4467 H         1 <0>         0.1318
     54 H18         1.0323   -7.6066    6.8501 H         1 <0>         0.0994
     55 H19         2.7071   -6.3887    8.8631 H         1 <0>         0.1066
     56 H20         3.0550   -6.2428    7.0858 H         1 <0>         0.0969
     57 H21         2.1524   -3.9816    7.3669 H         1 <0>         0.1040
     58 H22         1.1692   -4.4811    8.8108 H         1 <0>         0.1301
     59 H23         0.6925   -4.4202    5.1581 H         1 <0>         0.4256
     60 H24         0.3466   -7.3349    5.0909 H         1 <0>         0.1398
     61 H25        -0.9431   -6.1299    4.8607 H         1 <0>         0.1304
     62 H26         1.4950   -5.8962    3.0307 H         1 <0>         0.1292
     63 H27        -1.6091   -5.5926    2.6997 H         1 <0>         0.1058
     64 H28        -0.3378   -5.1862    1.4268 H         1 <0>         0.1148
     65 H29         0.4603   -7.5938    1.4552 H         1 <0>         0.1142
     66 H30        -0.8109   -8.0002    2.7281 H         1 <0>         0.1074
     67 H31        -4.1639    1.5691   -0.7218 H         1 <0>         0.0532
     68 H32        -3.3249    1.7046   -2.2857 H         1 <0>         0.0677
     69 H33        -3.1314    0.2378   -1.2961 H         1 <0>         0.0479
     70 H34         1.8863   -5.5357    5.3712 H         1 <0>         0.4331
@<TRIPOS>BOND
     1    1    2 1
     2    1   37 1
     3    1   38 1
     4    1   39 1
     5    2    8 ar
     6    2    3 ar
     7    3    4 ar
     8    3   36 1
     9    4    5 1
    10    4    6 ar
    11    6    7 ar
    12    7    8 ar
    13    8    9 1
    14    9   10 1
    15    9   40 1
    16    9   41 1
    17   10   15 ar
    18   10   11 ar
    19   11   12 ar
    20   11   42 1
    21   12   13 ar
    22   12   43 1
    23   13   14 ar
    24   13   35 1
    25   14   15 ar
    26   14   16 1
    27   15   44 1
    28   16   17 2
    29   16   18 am
    30   18   23 1
    31   18   19 1
    32   19   20 1
    33   19   45 1
    34   19   46 1
    35   20   21 1
    36   20   47 1
    37   20   48 1
    38   21   22 1
    39   21   24 am
    40   22   23 1
    41   22   49 1
    42   22   50 1
    43   23   51 1
    44   23   52 1
    45   24   25 2
    46   24   26 1
    47   26   29 1
    48   26   27 1
    49   26   30 1
    50   27   28 1
    51   27   53 1
    52   27   54 1
    53   28   29 1
    54   28   55 1
    55   28   56 1
    56   29   57 1
    57   29   58 1
    58   30   31 1
    59   30   59 1
    60   30   70 1
    61   31   32 1
    62   31   60 1
    63   31   61 1
    64   32   34 1
    65   32   33 1
    66   32   62 1
    67   33   34 1
    68   33   63 1
    69   33   64 1
    70   34   65 1
    71   34   66 1
    72   36   67 1
    73   36   68 1
    74   36   69 1
@<TRIPOS>MOLECULE
CHEMBL592459
   55    59     0     0     0
SMALL
USER_CHARGES

@<TRIPOS>ATOM
      1 C1          8.0415   -3.1444   -0.8236 C.ar      1 <0>        -0.1245
      2 C2          9.1559   -3.9067   -0.5253 C.ar      1 <0>        -0.0921
      3 C3          9.0104   -5.2192   -0.1148 C.ar      1 <0>        -0.1506
      4 C4          7.7486   -5.7733   -0.0014 C.ar      1 <0>         0.0916
      5 C5          6.6263   -5.0085   -0.3009 C.ar      1 <0>         0.1339
      6 C6          6.7777   -3.6913   -0.7127 C.ar      1 <0>        -0.0966
      7 N1          5.3483   -5.5650   -0.1881 N.pl3     1 <0>        -0.6727
      8 C7          4.6019   -5.4744    1.0746 C.3       1 <0>         0.1312
      9 C8          3.2410   -4.8250    0.7940 C.3       1 <0>         0.0981
     10 N2          2.6202   -5.5105   -0.3481 N.am      1 <0>        -0.6034
     11 C9          3.3666   -5.6011   -1.6109 C.3       1 <0>         0.0862
     12 C10         4.7252   -6.2456   -1.3319 C.3       1 <0>         0.1305
     13 C11         1.3885   -6.0469   -0.2394 C.2       1 <0>         0.5634
     14 O1          0.8386   -6.0917    0.8439 O.2       1 <0>        -0.5178
     15 C12         0.7070   -6.5801   -1.4362 C.ar      1 <0>        -0.1621
     16 C13         0.6871   -5.8402   -2.6206 C.ar      1 <0>        -0.0536
     17 C14         0.0496   -6.3438   -3.7343 C.ar      1 <0>        -0.1042
     18 C15        -0.5712   -7.5803   -3.6824 C.ar      1 <0>        -0.0720
     19 C16        -0.5575   -8.3199   -2.5150 C.ar      1 <0>        -0.1506
     20 C17         0.0834   -7.8307   -1.3910 C.ar      1 <0>         0.1542
     21 F1          0.1015   -8.5563   -0.2515 F         1 <0>        -0.1199
     22 C18         0.0280   -5.5457   -5.0124 C.3       1 <0>        -0.0385
     23 C19        -1.0903   -4.5370   -4.9560 C.2       1 <0>         0.0076
     24 C20        -0.8658   -3.3451   -4.4231 C.2       1 <0>         0.0972
     25 N3         -1.8556   -2.3791   -4.3445 N.am      1 <0>        -0.6435
     26 H1         -1.6577   -1.5161   -3.9484 H         1 <0>         0.4271
     27 C21        -3.0950   -2.6335   -4.8175 C.2       1 <0>         0.5823
     28 O2         -3.9711   -1.7896   -4.7527 O.2       1 <0>        -0.4970
     29 C22        -3.3624   -3.9442   -5.4096 C.2       1 <0>        -0.0374
     30 N4         -2.3391   -4.8714   -5.4693 N.pl3     1 <0>        -0.3381
     31 C23        -2.8166   -5.9951   -6.0586 C.2       1 <0>         0.0935
     32 C24        -4.1226   -5.8032   -6.3817 C.2       1 <0>        -0.0838
     33 C25        -4.4829   -4.5167   -5.9708 C.2       1 <0>        -0.0751
     34 Cl1        -5.1634   -6.9571   -7.1555 Cl        1 <0>        -0.0111
     35 Cl2        -1.9069   -7.4440   -6.3535 Cl        1 <0>         0.0193
     36 F2          7.6062   -7.0557    0.3992 F         1 <0>        -0.1341
     37 H2          8.1590   -2.1184   -1.1396 H         1 <0>         0.1306
     38 H3         10.1424   -3.4761   -0.6135 H         1 <0>         0.1334
     39 H4          9.8829   -5.8119    0.1171 H         1 <0>         0.1358
     40 H5          5.9083   -3.0946   -0.9457 H         1 <0>         0.1303
     41 H6          4.4529   -6.4736    1.4841 H         1 <0>         0.0603
     42 H7          5.1587   -4.8642    1.7858 H         1 <0>         0.0840
     43 H8          2.6013   -4.9227    1.6711 H         1 <0>         0.1013
     44 H9          3.3810   -3.7706    0.5558 H         1 <0>         0.0734
     45 H10         2.8098   -6.2113   -2.3220 H         1 <0>         0.0963
     46 H11         3.5156   -4.6020   -2.0203 H         1 <0>         0.0752
     47 H12         5.3634   -6.1446   -2.2097 H         1 <0>         0.0844
     48 H13         4.5852   -7.3009   -1.0978 H         1 <0>         0.0589
     49 H14         1.1700   -4.8751   -2.6637 H         1 <0>         0.1383
     50 H15        -1.0691   -7.9687   -4.5585 H         1 <0>         0.1431
     51 H16        -1.0444   -9.2833   -2.4814 H         1 <0>         0.1469
     52 H17         0.9792   -5.0272   -5.1331 H         1 <0>         0.1108
     53 H18        -0.1300   -6.2164   -5.8570 H         1 <0>         0.1032
     54 H19         0.1178   -3.1199   -4.0383 H         1 <0>         0.1825
     55 H20        -5.4528   -4.0549   -6.0824 H         1 <0>         0.1742
@<TRIPOS>BOND
     1    1    6 ar
     2    1    2 ar
     3    1   37 1
     4    2    3 ar
     5    2   38 1
     6    3    4 ar
     7    3   39 1
     8    4    5 ar
     9    4   36 1
    10    5    6 ar
    11    5    7 1
    12    6   40 1
    13    7   12 1
    14    7    8 1
    15    8    9 1
    16    8   41 1
    17    8   42 1
    18    9   10 1
    19    9   43 1
    20    9   44 1
    21   10   11 1
    22   10   13 am
    23   11   12 1
    24   11   45 1
    25   11   46 1
    26   12   47 1
    27   12   48 1
    28   13   14 2
    29   13   15 1
    30   15   20 ar
    31   15   16 ar
    32   16   17 ar
    33   16   49 1
    34   17   18 ar
    35   17   22 1
    36   18   19 ar
    37   18   50 1
    38   19   20 ar
    39   19   51 1
    40   20   21 1
    41   22   23 1
    42   22   52 1
    43   22   53 1
    44   23   30 1
    45   23   24 2
    46   24   25 1
    47   24   54 1
    48   25   26 1
    49   25   27 am
    50   27   28 2
    51   27   29 1
    52   29   33 2
    53   29   30 1
    54   30   31 1
    55   31   32 2
    56   31   35 1
    57   32   33 1
    58   32   34 1
    59   33   55 1
@<TRIPOS>MOLECULE
CHEMBL204097
   67    71     0     0     0
SMALL
USER_CHARGES

@<TRIPOS>ATOM
      1 C1         -0.9154   -2.7648   -2.9144 C.3       1 <0>        -0.1482
      2 C2         -0.9766   -2.1682   -1.5069 C.3       1 <0>        -0.0934
      3 C3         -0.0423   -2.9501   -0.5807 C.3       1 <0>        -0.1317
      4 C4         -0.0799   -2.3286    0.8190 C.3       1 <0>         0.1023
      5 N1         -1.4755   -2.2747    1.2752 N.am      1 <0>        -0.6122
      6 C5         -2.4748   -1.6245    0.4165 C.3       1 <0>         0.1096
      7 C6         -2.4104   -2.2539   -0.9787 C.3       1 <0>        -0.1296
      8 C7         -1.8323   -2.8119    2.4587 C.2       1 <0>         0.5211
      9 O1         -2.9656   -2.6766    2.8690 O.2       1 <0>        -0.5363
     10 C8         -0.8232   -3.5807    3.2721 C.3       1 <0>        -0.1075
     11 C9         -0.0955   -2.6233    4.2187 C.3       1 <0>        -0.1231
     12 C10         0.9533   -3.4019    5.0191 C.3       1 <0>         0.1143
     13 N2          0.2938   -4.5297    5.6912 N.am      1 <0>        -0.6085
     14 C11        -0.5080   -5.4610    4.8860 C.3       1 <0>         0.0966
     15 C12        -1.5404   -4.6593    4.0871 C.3       1 <0>        -0.1178
     16 C13         0.4222   -4.7068    7.0211 C.2       1 <0>         0.5634
     17 O2          1.0088   -3.8791    7.6906 O.2       1 <0>        -0.5311
     18 C14        -0.1503   -5.9079    7.6656 C.ar      1 <0>        -0.1282
     19 C15        -0.0829   -7.1465    7.0253 C.ar      1 <0>        -0.0906
     20 C16        -0.6186   -8.2633    7.6323 C.ar      1 <0>        -0.1225
     21 C17        -1.2223   -8.1578    8.8730 C.ar      1 <0>        -0.0791
     22 C18        -1.2924   -6.9333    9.5129 C.ar      1 <0>        -0.0802
     23 C19        -0.7554   -5.8094    8.9193 C.ar      1 <0>        -0.0482
     24 C20        -1.9522   -6.8277   10.8637 C.3       1 <0>        -0.0188
     25 C21        -0.9246   -7.0499   11.9434 C.2       1 <0>         0.1380
     26 C22        -1.3208   -7.0034   13.3509 C.ar      1 <0>        -0.0593
     27 C23        -2.6396   -6.7568   13.7375 C.ar      1 <0>        -0.0977
     28 C24        -2.9604   -6.7236   15.0658 C.ar      1 <0>        -0.0873
     29 C25        -1.9917   -6.9316   16.0393 C.ar      1 <0>        -0.1111
     30 C26        -0.6825   -7.1767   15.6876 C.ar      1 <0>        -0.0546
     31 C27        -0.3321   -7.2161   14.3386 C.ar      1 <0>        -0.1258
     32 C28         1.0448   -7.4734   13.8993 C.2       1 <0>         0.5285
     33 N3          1.3103   -7.4964   12.5765 N.am      1 <0>        -0.5332
     34 N4          0.3125   -7.2881   11.6238 N.2       1 <0>        -0.2186
     35 O3          1.9310   -7.6621   14.7134 O.2       1 <0>        -0.5217
     36 H1         -1.5799   -2.2073   -3.5746 H         1 <0>         0.0564
     37 H2          0.1057   -2.7039   -3.2908 H         1 <0>         0.0563
     38 H3         -1.2285   -3.8083   -2.8807 H         1 <0>         0.0546
     39 H4         -0.6639   -1.1246   -1.5409 H         1 <0>         0.0726
     40 H5         -0.3691   -3.9886   -0.5265 H         1 <0>         0.0681
     41 H6          0.9749   -2.9082   -0.9702 H         1 <0>         0.0774
     42 H7          0.5057   -2.9396    1.5059 H         1 <0>         0.0886
     43 H8          0.3317   -1.3200    0.7821 H         1 <0>         0.0720
     44 H9         -3.4694   -1.7709    0.8378 H         1 <0>         0.0923
     45 H10        -2.2585   -0.5585    0.3468 H         1 <0>         0.0671
     46 H11        -3.0787   -1.7165   -1.6514 H         1 <0>         0.0764
     47 H12        -2.7149   -3.2989   -0.9208 H         1 <0>         0.0668
     48 H13        -0.1006   -4.0502    2.6047 H         1 <0>         0.0956
     49 H14         0.3957   -1.8418    3.6389 H         1 <0>         0.0806
     50 H15        -0.8140   -2.1720    4.9029 H         1 <0>         0.0778
     51 H16         1.7227   -3.7777    4.3447 H         1 <0>         0.0724
     52 H17         1.4054   -2.7465    5.7635 H         1 <0>         0.0997
     53 H18         0.1422   -6.0048    4.2007 H         1 <0>         0.0734
     54 H19        -1.0201   -6.1644    5.5426 H         1 <0>         0.1033
     55 H20        -2.2454   -4.1889    4.7725 H         1 <0>         0.0823
     56 H21        -2.0776   -5.3271    3.4136 H         1 <0>         0.0805
     57 H22         0.3874   -7.2301    6.0566 H         1 <0>         0.1305
     58 H23        -0.5671   -9.2222    7.1379 H         1 <0>         0.1300
     59 H24        -1.6408   -9.0351    9.3436 H         1 <0>         0.1261
     60 H25        -0.8071   -4.8549    9.4218 H         1 <0>         0.1291
     61 H26        -2.3902   -5.8361   10.9776 H         1 <0>         0.1078
     62 H27        -2.7346   -7.5821   10.9459 H         1 <0>         0.1087
     63 H28        -3.4023   -6.5927   12.9907 H         1 <0>         0.1418
     64 H29        -3.9811   -6.5327   15.3624 H         1 <0>         0.1366
     65 H30        -2.2678   -6.9005   17.0829 H         1 <0>         0.1373
     66 H31         0.0656   -7.3375   16.4498 H         1 <0>         0.1434
     67 H32         2.2182   -7.6659   12.2800 H         1 <0>         0.4367
@<TRIPOS>BOND
     1    1    2 1
     2    1   36 1
     3    1   37 1
     4    1   38 1
     5    2    7 1
     6    2    3 1
     7    2   39 1
     8    3    4 1
     9    3   40 1
    10    3   41 1
    11    4    5 1
    12    4   42 1
    13    4   43 1
    14    5    6 1
    15    5    8 am
    16    6    7 1
    17    6   44 1
    18    6   45 1
    19    7   46 1
    20    7   47 1
    21    8    9 2
    22    8   10 1
    23   10   15 1
    24   10   11 1
    25   10   48 1
    26   11   12 1
    27   11   49 1
    28   11   50 1
    29   12   13 1
    30   12   51 1
    31   12   52 1
    32   13   14 1
    33   13   16 am
    34   14   15 1
    35   14   53 1
    36   14   54 1
    37   15   55 1
    38   15   56 1
    39   16   17 2
    40   16   18 1
    41   18   23 ar
    42   18   19 ar
    43   19   20 ar
    44   19   57 1
    45   20   21 ar
    46   20   58 1
    47   21   22 ar
    48   21   59 1
    49   22   23 ar
    50   22   24 1
    51   23   60 1
    52   24   25 1
    53   24   61 1
    54   24   62 1
    55   25   34 2
    56   25   26 1
    57   26   31 ar
    58   26   27 ar
    59   27   28 ar
    60   27   63 1
    61   28   29 ar
    62   28   64 1
    63   29   30 ar
    64   29   65 1
    65   30   31 ar
    66   30   66 1
    67   31   32 1
    68   32   33 am
    69   32   35 2
    70   33   34 1
    71   33   67 1
@<TRIPOS>MOLECULE
CHEMBL203765
   67    71     0     0     0
SMALL
USER_CHARGES

@<TRIPOS>ATOM
      1 C1          1.0389    1.1368    0.2689 C.3       1 <0>         0.0723
      2 N1          1.3632   -0.2910    0.2219 N.am      1 <0>        -0.6117
      3 C2          1.7707   -0.9902    1.4432 C.3       1 <0>         0.1540
      4 C3          0.5524   -1.5472    2.1334 C.ar      1 <0>        -0.1102
      5 C4         -0.1234   -0.7831    3.0663 C.ar      1 <0>        -0.1077
      6 C5         -1.2409   -1.2940    3.6995 C.ar      1 <0>        -0.1241
      7 C6         -1.6829   -2.5690    3.3995 C.ar      1 <0>        -0.1154
      8 C7         -1.0077   -3.3328    2.4659 C.ar      1 <0>        -0.1229
      9 C8          0.1073   -2.8202    1.8296 C.ar      1 <0>        -0.0956
     10 C9          1.2866   -0.9615   -0.9447 C.2       1 <0>         0.5211
     11 O1          1.5550   -2.1436   -0.9836 O.2       1 <0>        -0.5317
     12 C10         0.8674   -0.2423   -2.2009 C.3       1 <0>        -0.1054
     13 C11         1.8505    0.8944   -2.4899 C.3       1 <0>        -0.1378
     14 C12         1.4019    1.6447   -3.7479 C.3       1 <0>         0.1139
     15 N2          1.2547    0.6802   -4.8465 N.am      1 <0>        -0.6077
     16 C13         0.4028   -0.4992   -4.6418 C.3       1 <0>         0.0963
     17 C14         0.8626   -1.2255   -3.3738 C.3       1 <0>        -0.1132
     18 C15         1.8888    0.8740   -6.0199 C.2       1 <0>         0.5636
     19 O2          2.5346    1.8876   -6.2017 O.2       1 <0>        -0.5304
     20 C16         1.7989   -0.1464   -7.0861 C.ar      1 <0>        -0.1238
     21 C17         0.5540   -0.6373   -7.4834 C.ar      1 <0>        -0.0909
     22 C18         0.4771   -1.5888   -8.4790 C.ar      1 <0>        -0.1194
     23 C19         1.6305   -2.0572   -9.0833 C.ar      1 <0>        -0.0819
     24 C20         2.8674   -1.5749   -8.6942 C.ar      1 <0>        -0.0776
     25 C21         2.9579   -0.6187   -7.7035 C.ar      1 <0>        -0.0534
     26 C22         4.1182   -2.0911   -9.3575 C.3       1 <0>        -0.0187
     27 C23         4.4416   -1.2353  -10.5550 C.2       1 <0>         0.1373
     28 C24         5.6146   -1.5383  -11.3752 C.ar      1 <0>        -0.0592
     29 C25         6.4601   -2.6105  -11.0843 C.ar      1 <0>        -0.0978
     30 C26         7.5438   -2.8532  -11.8813 C.ar      1 <0>        -0.0874
     31 C27         7.8174   -2.0469  -12.9786 C.ar      1 <0>        -0.1112
     32 C28         7.0011   -0.9817  -13.2897 C.ar      1 <0>        -0.0545
     33 C29         5.8893   -0.7156  -12.4915 C.ar      1 <0>        -0.1258
     34 C30         4.9807    0.4032  -12.7705 C.2       1 <0>         0.5284
     35 N3          3.9246    0.6005  -11.9540 N.am      1 <0>        -0.5330
     36 N4          3.6753   -0.2313  -10.8621 N.2       1 <0>        -0.2179
     37 O3          5.1766    1.1397  -13.7207 O.2       1 <0>        -0.5215
     38 H1          1.9408    1.7205    0.0841 H         1 <0>         0.0641
     39 H2          0.2952    1.3658   -0.4944 H         1 <0>         0.0757
     40 H3          0.6395    1.3866    1.2518 H         1 <0>         0.0728
     41 H4          2.4474   -1.8052    1.1866 H         1 <0>         0.0932
     42 H5          2.2784   -0.2924    2.1091 H         1 <0>         0.0865
     43 H6          0.2220    0.2130    3.3008 H         1 <0>         0.1195
     44 H7         -1.7685   -0.6973    4.4289 H         1 <0>         0.1221
     45 H8         -2.5556   -2.9684    3.8947 H         1 <0>         0.1216
     46 H9         -1.3528   -4.3290    2.2317 H         1 <0>         0.1222
     47 H10         0.6327   -3.4155    1.0975 H         1 <0>         0.1276
     48 H11        -0.1334    0.1685   -2.0674 H         1 <0>         0.0995
     49 H12         1.8707    1.5817   -1.6442 H         1 <0>         0.0919
     50 H13         2.8470    0.4820   -2.6482 H         1 <0>         0.0742
     51 H14         0.4459    2.1336   -3.5604 H         1 <0>         0.0721
     52 H15         2.1502    2.3910   -4.0146 H         1 <0>         0.0984
     53 H16        -0.6347   -0.1851   -4.5272 H         1 <0>         0.0733
     54 H17         0.4919   -1.1674   -5.4983 H         1 <0>         0.1014
     55 H18         1.8684   -1.6178   -3.5237 H         1 <0>         0.0768
     56 H19         0.1797   -2.0469   -3.1572 H         1 <0>         0.0852
     57 H20        -0.3469   -0.2731   -7.0121 H         1 <0>         0.1282
     58 H21        -0.4854   -1.9694   -8.7874 H         1 <0>         0.1300
     59 H22         1.5649   -2.8028   -9.8618 H         1 <0>         0.1260
     60 H23         3.9238   -0.2400   -7.4036 H         1 <0>         0.1268
     61 H24         4.9465   -2.0537   -8.6499 H         1 <0>         0.1073
     62 H25         3.9608   -3.1207   -9.6786 H         1 <0>         0.1087
     63 H26         6.2591   -3.2448  -10.2336 H         1 <0>         0.1418
     64 H27         8.1965   -3.6832  -11.6543 H         1 <0>         0.1365
     65 H28         8.6795   -2.2570  -13.5943 H         1 <0>         0.1373
     66 H29         7.2198   -0.3589  -14.1445 H         1 <0>         0.1434
     67 H30         3.3206    1.3381  -12.1332 H         1 <0>         0.4368
@<TRIPOS>BOND
     1    1    2 1
     2    1   38 1
     3    1   39 1
     4    1   40 1
     5    2    3 1
     6    2   10 am
     7    3    4 1
     8    3   41 1
     9    3   42 1
    10    4    9 ar
    11    4    5 ar
    12    5    6 ar
    13    5   43 1
    14    6    7 ar
    15    6   44 1
    16    7    8 ar
    17    7   45 1
    18    8    9 ar
    19    8   46 1
    20    9   47 1
    21   10   11 2
    22   10   12 1
    23   12   17 1
    24   12   13 1
    25   12   48 1
    26   13   14 1
    27   13   49 1
    28   13   50 1
    29   14   15 1
    30   14   51 1
    31   14   52 1
    32   15   16 1
    33   15   18 am
    34   16   17 1
    35   16   53 1
    36   16   54 1
    37   17   55 1
    38   17   56 1
    39   18   19 2
    40   18   20 1
    41   20   25 ar
    42   20   21 ar
    43   21   22 ar
    44   21   57 1
    45   22   23 ar
    46   22   58 1
    47   23   24 ar
    48   23   59 1
    49   24   25 ar
    50   24   26 1
    51   25   60 1
    52   26   27 1
    53   26   61 1
    54   26   62 1
    55   27   36 2
    56   27   28 1
    57   28   33 ar
    58   28   29 ar
    59   29   30 ar
    60   29   63 1
    61   30   31 ar
    62   30   64 1
    63   31   32 ar
    64   31   65 1
    65   32   33 ar
    66   32   66 1
    67   33   34 1
    68   34   35 am
    69   34   37 2
    70   35   36 1
    71   35   67 1
@<TRIPOS>MOLECULE
CHEMBL201981
   69    72     0     0     0
SMALL
USER_CHARGES

@<TRIPOS>ATOM
      1 C1         -0.6007   -0.5405   -1.6471 C.3       1 <0>        -0.1532
      2 C2         -0.5055   -2.0128   -1.2421 C.3       1 <0>        -0.1180
      3 C3          0.3025   -2.1347    0.0514 C.3       1 <0>        -0.1063
      4 C4          1.7443   -1.6911   -0.2042 C.3       1 <0>        -0.1383
      5 C5          0.2927   -3.5900    0.5236 C.3       1 <0>         0.1173
      6 N1          0.9639   -3.6865    1.8223 N.am      1 <0>        -0.6158
      7 C6          0.1923   -3.5369    3.0586 C.3       1 <0>         0.0727
      8 C7          2.2913   -3.9130    1.8796 C.2       1 <0>         0.5189
      9 O1          2.9301   -4.0369    0.8562 O.2       1 <0>        -0.5288
     10 C8          2.9817   -4.0123    3.2155 C.3       1 <0>        -0.1065
     11 C9          2.3736   -5.1639    4.0194 C.3       1 <0>        -0.1377
     12 C10         3.0540   -5.2398    5.3898 C.3       1 <0>         0.1139
     13 N2          4.5062   -5.3431    5.1917 N.am      1 <0>        -0.6076
     14 C11         5.1788   -4.3368    4.3587 C.3       1 <0>         0.0962
     15 C12         4.4746   -4.2710    2.9999 C.3       1 <0>        -0.1132
     16 C13         5.2080   -6.3415    5.7635 C.2       1 <0>         0.5634
     17 O2          4.6523   -7.1271    6.5063 O.2       1 <0>        -0.5306
     18 C14         6.6537   -6.4813    5.4874 C.ar      1 <0>        -0.1237
     19 C15         7.5039   -5.3833    5.6297 C.ar      1 <0>        -0.0909
     20 C16         8.8518   -5.5206    5.3709 C.ar      1 <0>        -0.1194
     21 C17         9.3616   -6.7433    4.9707 C.ar      1 <0>        -0.0819
     22 C18         8.5245   -7.8353    4.8278 C.ar      1 <0>        -0.0776
     23 C19         7.1752   -7.7129    5.0890 C.ar      1 <0>        -0.0535
     24 C20         9.0884   -9.1628    4.3910 C.3       1 <0>        -0.0187
     25 C21         9.5023   -9.9563    5.6035 C.2       1 <0>         0.1374
     26 C22        10.0885  -11.2869    5.4417 C.ar      1 <0>        -0.0592
     27 C23        10.2824  -11.8586    4.1828 C.ar      1 <0>        -0.0978
     28 C24        10.8346  -13.1051    4.0835 C.ar      1 <0>        -0.0874
     29 C25        11.2061  -13.8135    5.2190 C.ar      1 <0>        -0.1111
     30 C26        11.0262  -13.2749    6.4742 C.ar      1 <0>        -0.0545
     31 C27        10.4657  -12.0045    6.5998 C.ar      1 <0>        -0.1258
     32 C28        10.2491  -11.3752    7.9084 C.2       1 <0>         0.5284
     33 N3          9.7011  -10.1429    7.9531 N.am      1 <0>        -0.5330
     34 N4          9.3433   -9.4561    6.7926 N.2       1 <0>        -0.2180
     35 O3         10.5578  -11.9547    8.9344 O.2       1 <0>        -0.5216
     36 H1          0.4013   -0.1417   -1.8057 H         1 <0>         0.0571
     37 H2         -1.1763   -0.4536   -2.5686 H         1 <0>         0.0544
     38 H3         -1.0949    0.0229   -0.8556 H         1 <0>         0.0525
     39 H4         -1.5074   -2.4116   -1.0835 H         1 <0>         0.0617
     40 H5         -0.0113   -2.5762   -2.0336 H         1 <0>         0.0643
     41 H6         -0.1420   -1.5008    0.8186 H         1 <0>         0.0688
     42 H7          2.1889   -2.3251   -0.9714 H         1 <0>         0.0592
     43 H8          1.7513   -0.6544   -0.5406 H         1 <0>         0.0505
     44 H9          2.3200   -1.7780    0.7174 H         1 <0>         0.0495
     45 H10        -0.7371   -3.9336    0.6205 H         1 <0>         0.0761
     46 H11         0.8163   -4.2113   -0.2030 H         1 <0>         0.0846
     47 H12        -0.1725   -4.5126    3.3795 H         1 <0>         0.0622
     48 H13         0.8291   -3.1135    3.8353 H         1 <0>         0.0749
     49 H14        -0.6539   -2.8731    2.8806 H         1 <0>         0.0727
     50 H15         2.8502   -3.0787    3.7625 H         1 <0>         0.0988
     51 H16         1.3057   -4.9905    4.1525 H         1 <0>         0.0916
     52 H17         2.5266   -6.1013    3.4847 H         1 <0>         0.0737
     53 H18         2.8262   -4.3400    5.9612 H         1 <0>         0.0721
     54 H19         2.6953   -6.1174    5.9277 H         1 <0>         0.0981
     55 H20         5.1243   -3.3634    4.8461 H         1 <0>         0.0733
     56 H21         6.2221   -4.6186    4.2163 H         1 <0>         0.1012
     57 H22         4.6078   -5.2169    2.4748 H         1 <0>         0.0765
     58 H23         4.9021   -3.4621    2.4074 H         1 <0>         0.0852
     59 H24         7.1072   -4.4284    5.9413 H         1 <0>         0.1282
     60 H25         9.5107   -4.6720    5.4806 H         1 <0>         0.1300
     61 H26        10.4176   -6.8453    4.7687 H         1 <0>         0.1260
     62 H27         6.5234   -8.5673    4.9811 H         1 <0>         0.1267
     63 H28         8.3295   -9.7153    3.8369 H         1 <0>         0.1073
     64 H29         9.9557   -8.9967    3.7521 H         1 <0>         0.1087
     65 H30         9.9973  -11.3188    3.2919 H         1 <0>         0.1418
     66 H31        10.9837  -13.5453    3.1087 H         1 <0>         0.1365
     67 H32        11.6402  -14.7971    5.1169 H         1 <0>         0.1373
     68 H33        11.3174  -13.8313    7.3528 H         1 <0>         0.1434
     69 H34         9.5555   -9.7219    8.8147 H         1 <0>         0.4368
@<TRIPOS>BOND
     1    1    2 1
     2    1   36 1
     3    1   37 1
     4    1   38 1
     5    2    3 1
     6    2   39 1
     7    2   40 1
     8    3    4 1
     9    3    5 1
    10    3   41 1
    11    4   42 1
    12    4   43 1
    13    4   44 1
    14    5    6 1
    15    5   45 1
    16    5   46 1
    17    6    7 1
    18    6    8 am
    19    7   47 1
    20    7   48 1
    21    7   49 1
    22    8    9 2
    23    8   10 1
    24   10   15 1
    25   10   11 1
    26   10   50 1
    27   11   12 1
    28   11   51 1
    29   11   52 1
    30   12   13 1
    31   12   53 1
    32   12   54 1
    33   13   14 1
    34   13   16 am
    35   14   15 1
    36   14   55 1
    37   14   56 1
    38   15   57 1
    39   15   58 1
    40   16   17 2
    41   16   18 1
    42   18   23 ar
    43   18   19 ar
    44   19   20 ar
    45   19   59 1
    46   20   21 ar
    47   20   60 1
    48   21   22 ar
    49   21   61 1
    50   22   23 ar
    51   22   24 1
    52   23   62 1
    53   24   25 1
    54   24   63 1
    55   24   64 1
    56   25   34 2
    57   25   26 1
    58   26   31 ar
    59   26   27 ar
    60   27   28 ar
    61   27   65 1
    62   28   29 ar
    63   28   66 1
    64   29   30 ar
    65   29   67 1
    66   30   31 ar
    67   30   68 1
    68   31   32 1
    69   32   33 am
    70   32   35 2
    71   33   34 1
    72   33   69 1
@<TRIPOS>MOLECULE
CHEMBL201981__1
   69    72     0     0     0
SMALL
USER_CHARGES

@<TRIPOS>ATOM
      1 C1          0.7405    2.5388   -0.1870 C.3       1 <0>        -0.1531
      2 C2          0.9009    1.0438   -0.4699 C.3       1 <0>        -0.1178
      3 C3          1.3862    0.3344    0.7958 C.3       1 <0>        -0.1072
      4 C4          0.3087    0.4282    1.8780 C.3       1 <0>        -0.1514
      5 C5          1.6659   -1.1364    0.4807 C.3       1 <0>         0.1188
      6 N1          2.2429   -1.7873    1.6596 N.am      1 <0>        -0.6144
      7 C6          1.3673   -2.4198    2.6492 C.3       1 <0>         0.0573
      8 C7          3.5792   -1.8041    1.8336 C.2       1 <0>         0.5179
      9 O1          4.2993   -1.2114    1.0582 O.2       1 <0>        -0.5319
     10 C8          4.1788   -2.5594    2.9916 C.3       1 <0>        -0.1062
     11 C9          3.9225   -1.7902    4.2896 C.3       1 <0>        -0.1321
     12 C10         4.5030   -2.5778    5.4684 C.3       1 <0>         0.0952
     13 N2          5.9210   -2.8535    5.2004 N.am      1 <0>        -0.6074
     14 C11         6.2868   -3.5090    3.9373 C.3       1 <0>         0.1119
     15 C12         5.6863   -2.7110    2.7757 C.3       1 <0>        -0.1141
     16 C13         6.8683   -2.5113    6.0959 C.2       1 <0>         0.5624
     17 O2          8.0294   -2.8107    5.8968 O.2       1 <0>        -0.5285
     18 C14         6.4952   -1.7718    7.3205 C.ar      1 <0>        -0.1243
     19 C15         5.4065   -2.1900    8.0877 C.ar      1 <0>        -0.0932
     20 C16         5.0640   -1.4958    9.2294 C.ar      1 <0>        -0.1204
     21 C17         5.7966   -0.3868    9.6145 C.ar      1 <0>        -0.0816
     22 C18         6.8765    0.0329    8.8587 C.ar      1 <0>        -0.0777
     23 C19         7.2333   -0.6559    7.7176 C.ar      1 <0>        -0.0518
     24 C20         7.6683    1.2421    9.2855 C.3       1 <0>        -0.0189
     25 C21         8.7917    0.8121   10.1932 C.2       1 <0>         0.1374
     26 C22         9.7055    1.8102   10.7493 C.ar      1 <0>        -0.0594
     27 C23         9.5722    3.1706   10.4652 C.ar      1 <0>        -0.0979
     28 C24        10.4512    4.0648   11.0095 C.ar      1 <0>        -0.0874
     29 C25        11.4778    3.6393   11.8427 C.ar      1 <0>        -0.1110
     30 C26        11.6341    2.3033   12.1404 C.ar      1 <0>        -0.0544
     31 C27        10.7487    1.3732   11.5973 C.ar      1 <0>        -0.1256
     32 C28        10.8612   -0.0637   11.8767 C.2       1 <0>         0.5284
     33 N3          9.9685   -0.9057   11.3155 N.am      1 <0>        -0.5330
     34 N4          8.9455   -0.4448   10.4863 N.2       1 <0>        -0.2182
     35 O3         11.7439   -0.4878   12.6011 O.2       1 <0>        -0.5213
     36 H1          1.7002    2.9559    0.1180 H         1 <0>         0.0534
     37 H2          0.3947    3.0442   -1.0887 H         1 <0>         0.0544
     38 H3          0.0122    2.6814    0.6114 H         1 <0>         0.0559
     39 H4         -0.0589    0.6267   -0.7749 H         1 <0>         0.0625
     40 H5          1.6292    0.9012   -1.2683 H         1 <0>         0.0636
     41 H6          2.3003    0.8101    1.1511 H         1 <0>         0.0744
     42 H7         -0.6054   -0.0474    1.5227 H         1 <0>         0.0542
     43 H8          0.6545   -0.0772    2.7797 H         1 <0>         0.0563
     44 H9          0.1095    1.4761    2.1025 H         1 <0>         0.0579
     45 H10         0.7342   -1.6337    0.2107 H         1 <0>         0.0766
     46 H11         2.3674   -1.2028   -0.3509 H         1 <0>         0.0827
     47 H12         1.1321   -3.4351    2.3301 H         1 <0>         0.0577
     48 H13         1.8725   -2.4501    3.6146 H         1 <0>         0.0832
     49 H14         0.4457   -1.8446    2.7393 H         1 <0>         0.0783
     50 H15         3.7205   -3.5461    3.0579 H         1 <0>         0.0971
     51 H16         4.4017   -0.8127    4.2339 H         1 <0>         0.0772
     52 H17         2.8493   -1.6622    4.4307 H         1 <0>         0.0883
     53 H18         4.4113   -1.9895    6.3814 H         1 <0>         0.1046
     54 H19         3.9629   -3.5178    5.5811 H         1 <0>         0.0755
     55 H20         7.3721   -3.5352    3.8402 H         1 <0>         0.0986
     56 H21         5.8922   -4.5250    3.9253 H         1 <0>         0.0712
     57 H22         5.8685   -3.2385    1.8394 H         1 <0>         0.0826
     58 H23         6.1489   -1.7249    2.7343 H         1 <0>         0.0786
     59 H24         4.8335   -3.0550    7.7878 H         1 <0>         0.1298
     60 H25         4.2219   -1.8183    9.8238 H         1 <0>         0.1301
     61 H26         5.5238    0.1536   10.5089 H         1 <0>         0.1261
     62 H27         8.0792   -0.3297    7.1307 H         1 <0>         0.1278
     63 H28         8.0809    1.7354    8.4054 H         1 <0>         0.1075
     64 H29         7.0159    1.9343    9.8176 H         1 <0>         0.1086
     65 H30         8.7788    3.5147    9.8183 H         1 <0>         0.1416
     66 H31        10.3462    5.1167   10.7883 H         1 <0>         0.1366
     67 H32        12.1610    4.3634   12.2614 H         1 <0>         0.1374
     68 H33        12.4346    1.9795   12.7890 H         1 <0>         0.1435
     69 H34        10.0376   -1.8562   11.4963 H         1 <0>         0.4369
@<TRIPOS>BOND
     1    1    2 1
     2    1   36 1
     3    1   37 1
     4    1   38 1
     5    2    3 1
     6    2   39 1
     7    2   40 1
     8    3    4 1
     9    3    5 1
    10    3   41 1
    11    4   42 1
    12    4   43 1
    13    4   44 1
    14    5    6 1
    15    5   45 1
    16    5   46 1
    17    6    7 1
    18    6    8 am
    19    7   47 1
    20    7   48 1
    21    7   49 1
    22    8    9 2
    23    8   10 1
    24   10   15 1
    25   10   11 1
    26   10   50 1
    27   11   12 1
    28   11   51 1
    29   11   52 1
    30   12   13 1
    31   12   53 1
    32   12   54 1
    33   13   14 1
    34   13   16 am
    35   14   15 1
    36   14   55 1
    37   14   56 1
    38   15   57 1
    39   15   58 1
    40   16   17 2
    41   16   18 1
    42   18   23 ar
    43   18   19 ar
    44   19   20 ar
    45   19   59 1
    46   20   21 ar
    47   20   60 1
    48   21   22 ar
    49   21   61 1
    50   22   23 ar
    51   22   24 1
    52   23   62 1
    53   24   25 1
    54   24   63 1
    55   24   64 1
    56   25   34 2
    57   25   26 1
    58   26   31 ar
    59   26   27 ar
    60   27   28 ar
    61   27   65 1
    62   28   29 ar
    63   28   66 1
    64   29   30 ar
    65   29   67 1
    66   30   31 ar
    67   30   68 1
    68   31   32 1
    69   32   33 am
    70   32   35 2
    71   33   34 1
    72   33   69 1
@<TRIPOS>MOLECULE
CHEMBL82342
   23    25     0     0     0
SMALL
USER_CHARGES

@<TRIPOS>ATOM
      1 C1         -0.0166    1.3756    0.0096 C.ar      1 <0>        -0.0766
      2 C2          1.1678    2.0973    0.0022 C.ar      1 <0>        -0.1287
      3 C3          2.3846    1.4498   -0.0133 C.ar      1 <0>        -0.0456
      4 C4          2.4250    0.0563   -0.0211 C.ar      1 <0>        -0.1459
      5 C5          1.2193   -0.6757   -0.0131 C.ar      1 <0>         0.0078
      6 C6          0.0021   -0.0041    0.0020 C.ar      1 <0>        -0.1208
      7 C7          1.2967   -2.1474   -0.0223 C.ar      1 <0>        -0.1563
      8 C8          0.1513   -2.9372   -0.0157 C.ar      1 <0>         0.1608
      9 N1          0.2513   -4.2515   -0.0246 N.ar      1 <0>        -0.5002
     10 C9          1.4206   -4.8668   -0.0399 C.ar      1 <0>         0.1390
     11 C10         2.6041   -4.1602   -0.0469 C.ar      1 <0>        -0.2131
     12 C11         2.5584   -2.7667   -0.0385 C.ar      1 <0>         0.2190
     13 N2          3.7176   -2.0198   -0.0459 N.am      1 <0>        -0.6387
     14 C12         3.7014   -0.6739   -0.0381 C.2       1 <0>         0.5602
     15 O1          4.7501   -0.0571   -0.0456 O.2       1 <0>        -0.5120
     16 H1         -0.9617    1.8980    0.0260 H         1 <0>         0.1359
     17 H2          1.1364    3.1768    0.0082 H         1 <0>         0.1360
     18 H3          3.3023    2.0192   -0.0197 H         1 <0>         0.1415
     19 H4         -0.9242   -0.5594    0.0082 H         1 <0>         0.1376
     20 H5         -0.8232   -2.4718   -0.0028 H         1 <0>         0.1679
     21 H6          1.4496   -5.9464   -0.0467 H         1 <0>         0.1662
     22 H7          3.5518   -4.6779   -0.0588 H         1 <0>         0.1469
     23 H8          4.5720   -2.4790   -0.0571 H         1 <0>         0.4190
@<TRIPOS>BOND
     1    1    6 ar
     2    1    2 ar
     3    1   16 1
     4    2    3 ar
     5    2   17 1
     6    3    4 ar
     7    3   18 1
     8    4   14 1
     9    4    5 ar
    10    5    6 ar
    11    5    7 1
    12    6   19 1
    13    7   12 ar
    14    7    8 ar
    15    8    9 ar
    16    8   20 1
    17    9   10 ar
    18   10   11 ar
    19   10   21 1
    20   11   12 ar
    21   11   22 1
    22   12   13 1
    23   13   14 am
    24   13   23 1
    25   14   15 2
@<TRIPOS>MOLECULE
CHEMBL608111
   29    32     0     0     0
SMALL
USER_CHARGES

@<TRIPOS>ATOM
      1 C1         -0.0184    1.5028    0.0103 C.3       1 <0>        -0.1094
      2 C2          0.0021   -0.0041    0.0020 C.2       1 <0>         0.2047
      3 C3         -1.2062   -0.7170    0.0039 C.2       1 <0>        -0.1884
      4 C4         -1.1780   -2.0715   -0.0041 C.2       1 <0>         0.1050
      5 N1          0.0304   -2.7109   -0.0137 N.pl3     1 <0>        -0.4088
      6 C5          0.3721   -4.0378   -0.0226 C.2       1 <0>         0.1934
      7 C6          1.7561   -4.0864   -0.0294 C.2       1 <0>         0.0748
      8 C7          2.4273   -5.3960   -0.0397 C.ar      1 <0>         0.0344
      9 C8          3.8158   -5.5089   -0.0464 C.ar      1 <0>        -0.0997
     10 C9          4.3972   -6.7580   -0.0555 C.ar      1 <0>        -0.0809
     11 C10         3.6131   -7.9041   -0.0580 C.ar      1 <0>        -0.1241
     12 C11         2.2389   -7.8154   -0.0515 C.ar      1 <0>        -0.0468
     13 C12         1.6291   -6.5604   -0.0423 C.ar      1 <0>        -0.1382
     14 C13         0.1687   -6.4144   -0.0346 C.2       1 <0>         0.5729
     15 O1         -0.5420   -7.4034   -0.0367 O.2       1 <0>        -0.5122
     16 N2         -0.3853   -5.1880   -0.0253 N.am      1 <0>        -0.6119
     17 H1         -1.3523   -5.1115   -0.0200 H         1 <0>         0.4096
     18 N3          2.2178   -2.8218   -0.0247 N.2       1 <0>        -0.4277
     19 C14         1.1961   -1.9818   -0.0153 C.2       1 <0>         0.4025
     20 N4          1.1493   -0.6396   -0.0123 N.2       1 <0>        -0.4296
     21 H2          1.0042    1.8801    0.0026 H         1 <0>         0.0882
     22 H3         -0.5455    1.8639   -0.8728 H         1 <0>         0.0922
     23 H4         -0.5286    1.8543    0.9071 H         1 <0>         0.0924
     24 H5         -2.1496   -0.1912    0.0119 H         1 <0>         0.1713
     25 H6         -2.0973   -2.6382   -0.0025 H         1 <0>         0.1761
     26 H7          4.4329   -4.6226   -0.0448 H         1 <0>         0.1428
     27 H8          5.4736   -6.8467   -0.0610 H         1 <0>         0.1364
     28 H9          4.0859   -8.8750   -0.0655 H         1 <0>         0.1368
     29 H10         1.6367   -8.7120   -0.0539 H         1 <0>         0.1441
@<TRIPOS>BOND
     1    1    2 1
     2    1   21 1
     3    1   22 1
     4    1   23 1
     5    2   20 2
     6    2    3 1
     7    3    4 2
     8    3   24 1
     9    4    5 1
    10    4   25 1
    11    5   19 1
    12    5    6 1
    13    6   16 1
    14    6    7 2
    15    7    8 1
    16    7   18 1
    17    8   13 ar
    18    8    9 ar
    19    9   10 ar
    20    9   26 1
    21   10   11 ar
    22   10   27 1
    23   11   12 ar
    24   11   28 1
    25   12   13 ar
    26   12   29 1
    27   13   14 1
    28   14   15 2
    29   14   16 am
    30   16   17 1
    31   18   19 2
    32   19   20 1
@<TRIPOS>MOLECULE
CHEMBL562117
   42    45     0     0     0
SMALL
USER_CHARGES

@<TRIPOS>ATOM
      1 C1         -0.0173    1.4248    0.0099 C.3       1 <0>         0.0244
      2 O1          0.0021   -0.0041    0.0020 O.3       1 <0>        -0.3048
      3 C2         -1.2011   -0.6379    0.0101 C.ar      1 <0>         0.1449
      4 C3         -2.3721    0.1005    0.0195 C.ar      1 <0>        -0.2077
      5 C4         -3.6046   -0.5491    0.0273 C.ar      1 <0>         0.0816
      6 C5         -3.6567   -1.9413    0.0257 C.ar      1 <0>        -0.2077
      7 C6         -2.4842   -2.6773    0.0163 C.ar      1 <0>         0.1475
      8 C7         -1.2547   -2.0276    0.0032 C.ar      1 <0>         0.0250
      9 O2         -0.1031   -2.7521   -0.0117 O.3       1 <0>        -0.3125
     10 C8          0.4581   -3.1044    1.2543 C.3       1 <0>         0.0351
     11 O3         -2.5348   -4.0364    0.0147 O.3       1 <0>        -0.3045
     12 C9         -3.8312   -4.6374    0.0231 C.3       1 <0>         0.0223
     13 C10        -4.8607    0.2412    0.0378 C.2       1 <0>         0.1349
     14 C11        -6.1575   -0.2855    0.0519 C.2       1 <0>        -0.3247
     15 C12        -7.0442    0.7798    0.0581 C.2       1 <0>         0.3608
     16 N1         -8.3903    0.8109    0.0718 N.2       1 <0>        -0.6157
     17 C13        -9.0620    1.9392    0.0762 C.2       1 <0>         0.4752
     18 O4        -10.4154    1.9331    0.0905 O.3       1 <0>        -0.6584
     19 C14        -8.3224    3.2074    0.0660 C.ar      1 <0>        -0.1625
     20 C15        -8.9766    4.4401    0.0706 C.ar      1 <0>        -0.0361
     21 C16        -8.2433    5.5942    0.0610 C.ar      1 <0>        -0.1603
     22 C17        -6.8563    5.5510    0.0463 C.ar      1 <0>        -0.0842
     23 C18        -6.1901    4.3432    0.0411 C.ar      1 <0>        -0.1470
     24 C19        -6.9163    3.1601    0.0516 C.ar      1 <0>         0.1991
     25 N2         -6.2939    1.9244    0.0480 N.pl3     1 <0>        -0.3549
     26 N3         -4.9423    1.5575    0.0412 N.2       1 <0>        -0.3313
     27 H1          1.0053    1.8021    0.0021 H         1 <0>         0.0996
     28 H2         -0.5445    1.7859   -0.8732 H         1 <0>         0.0590
     29 H3         -0.5275    1.7763    0.9067 H         1 <0>         0.0577
     30 H4         -2.3303    1.1797    0.0211 H         1 <0>         0.1427
     31 H5         -4.6115   -2.4462    0.0321 H         1 <0>         0.1440
     32 H6         -0.2584   -3.7047    1.8150 H         1 <0>         0.0433
     33 H7          1.3714   -3.6791    1.0997 H         1 <0>         0.0884
     34 H8          0.6895   -2.1982    1.8140 H         1 <0>         0.0425
     35 H9         -4.3706   -4.3252    0.9173 H         1 <0>         0.0595
     36 H10        -4.3833   -4.3227   -0.8626 H         1 <0>         0.0607
     37 H11        -3.7287   -5.7225    0.0208 H         1 <0>         0.1002
     38 H12        -6.4199   -1.3331    0.0570 H         1 <0>         0.1432
     39 H13       -10.0557    4.4824    0.0813 H         1 <0>         0.1391
     40 H14        -8.7485    6.5487    0.0645 H         1 <0>         0.1239
     41 H15        -6.2928    6.4724    0.0384 H         1 <0>         0.1252
     42 H16        -5.1105    4.3181    0.0289 H         1 <0>         0.1324
@<TRIPOS>BOND
     1    1    2 1
     2    1   27 1
     3    1   28 1
     4    1   29 1
     5    2    3 1
     6    3    8 ar
     7    3    4 ar
     8    4    5 ar
     9    4   30 1
    10    5    6 ar
    11    5   13 1
    12    6    7 ar
    13    6   31 1
    14    7    8 ar
    15    7   11 1
    16    8    9 1
    17    9   10 1
    18   10   32 1
    19   10   33 1
    20   10   34 1
    21   11   12 1
    22   12   35 1
    23   12   36 1
    24   12   37 1
    25   13   26 2
    26   13   14 1
    27   14   15 2
    28   14   38 1
    29   15   25 1
    30   15   16 1
    31   16   17 2
    32   17   18 1
    33   17   19 1
    34   19   24 ar
    35   19   20 ar
    36   20   21 ar
    37   20   39 1
    38   21   22 ar
    39   21   40 1
    40   22   23 ar
    41   22   41 1
    42   23   24 ar
    43   23   42 1
    44   24   25 1
    45   25   26 1
@<TRIPOS>MOLECULE
CHEMBL609617
   33    34     0     0     0
SMALL
USER_CHARGES

@<TRIPOS>ATOM
      1 C1         -0.0187    1.5258    0.0104 C.3       1 <0>        -0.1500
      2 C2          0.0021   -0.0041    0.0020 C.3       1 <0>        -0.1175
      3 C3         -1.4333   -0.5336    0.0129 C.3       1 <0>        -0.1456
      4 C4          0.7182   -0.4975   -1.2568 C.3       1 <0>         0.1424
      5 N1          2.1249   -0.0911   -1.2094 N.am      1 <0>        -0.6181
      6 C5          2.6699    1.1670   -1.7322 C.3       1 <0>         0.1378
      7 C6          4.1522    1.1330   -1.4543 C.ar      1 <0>        -0.0912
      8 C7          5.1795    2.0171   -1.7087 C.ar      1 <0>        -0.0782
      9 C8          6.4747    1.7083   -1.3295 C.ar      1 <0>        -0.0954
     10 C9          6.7491    0.5120   -0.6931 C.ar      1 <0>        -0.0961
     11 C10         5.7231   -0.3906   -0.4289 C.ar      1 <0>        -0.0692
     12 C11         4.4061   -0.0776   -0.8140 C.ar      1 <0>        -0.0992
     13 C12         3.1297   -0.8062   -0.6744 C.2       1 <0>         0.5437
     14 O1          3.0055   -1.8969   -0.1526 O.2       1 <0>        -0.4698
     15 C13         6.0152   -1.6714    0.2516 C.2       1 <0>         0.5393
     16 O2          5.1163   -2.4568    0.4804 O.2       1 <0>        -0.4848
     17 N2          7.2780   -1.9673    0.6177 N.am      1 <0>        -0.8548
     18 H1          1.0039    1.9031    0.0027 H         1 <0>         0.0551
     19 H2         -0.5459    1.8868   -0.8726 H         1 <0>         0.0565
     20 H3         -0.5289    1.8773    0.9072 H         1 <0>         0.0569
     21 H4          0.5293   -0.3651    0.8851 H         1 <0>         0.0753
     22 H5         -1.9605   -0.1726   -0.8702 H         1 <0>         0.0572
     23 H6         -1.4185   -1.6235    0.0069 H         1 <0>         0.0584
     24 H7         -1.9435   -0.1821    0.9097 H         1 <0>         0.0596
     25 H8          0.6556   -1.5845   -1.3079 H         1 <0>         0.0871
     26 H9          0.2444   -0.0644   -2.1377 H         1 <0>         0.0831
     27 H10         2.4915    1.2351   -2.8054 H         1 <0>         0.0968
     28 H11         2.2124    2.0143   -1.2215 H         1 <0>         0.0998
     29 H12         4.9730    2.9534   -2.2057 H         1 <0>         0.1382
     30 H13         7.2746    2.4051   -1.5321 H         1 <0>         0.1417
     31 H14         7.7619    0.2771   -0.4007 H         1 <0>         0.1369
     32 H15         7.9954   -1.3405    0.4351 H         1 <0>         0.3974
     33 H16         7.4696   -2.8071    1.0638 H         1 <0>         0.4066
@<TRIPOS>BOND
     1    1    2 1
     2    1   18 1
     3    1   19 1
     4    1   20 1
     5    2    3 1
     6    2    4 1
     7    2   21 1
     8    3   22 1
     9    3   23 1
    10    3   24 1
    11    4    5 1
    12    4   25 1
    13    4   26 1
    14    5   13 am
    15    5    6 1
    16    6    7 1
    17    6   27 1
    18    6   28 1
    19    7   12 ar
    20    7    8 ar
    21    8    9 ar
    22    8   29 1
    23    9   10 ar
    24    9   30 1
    25   10   11 ar
    26   10   31 1
    27   11   12 ar
    28   11   15 1
    29   12   13 1
    30   13   14 2
    31   15   16 2
    32   15   17 am
    33   17   32 1
    34   17   33 1
@<TRIPOS>MOLECULE
CHEMBL598978
   49    52     0     0     0
SMALL
USER_CHARGES

@<TRIPOS>ATOM
      1 C1         -0.0381    1.4645   -0.0015 C.3       1 <0>        -0.0468
      2 N1         -0.0078   -0.0042   -0.0036 N.4       1 <0>        -0.3837
      3 C2         -1.3824   -0.5203   -0.0141 C.3       1 <0>        -0.0233
      4 C3         -1.3525   -2.0478   -0.1319 C.3       1 <0>         0.0992
      5 N2         -0.5114   -2.5826    0.9500 N.pl3     1 <0>        -0.6455
      6 C4          0.8285   -2.0046    1.1366 C.3       1 <0>         0.1011
      7 C5          0.6957   -0.4792    1.1946 C.3       1 <0>        -0.0230
      8 C6         -0.9727   -3.6113    1.7781 C.ar      1 <0>         0.1694
      9 C7         -2.2798   -4.0655    1.6588 C.ar      1 <0>        -0.1507
     10 C8         -2.7350   -5.0807    2.4762 C.ar      1 <0>        -0.1073
     11 C9         -1.8860   -5.6478    3.4177 C.ar      1 <0>         0.1488
     12 C10        -0.5790   -5.1936    3.5370 C.ar      1 <0>        -0.1125
     13 C11        -0.1219   -4.1823    2.7158 C.ar      1 <0>        -0.1536
     14 N3         -2.3480   -6.6773    4.2471 N.am      1 <0>        -0.5604
     15 C12        -1.5633   -7.3582    5.2832 C.3       1 <0>         0.1392
     16 C13        -2.4814   -8.3816    5.9039 C.ar      1 <0>        -0.0901
     17 C14        -2.3159   -9.3090    6.9108 C.ar      1 <0>        -0.0747
     18 C15        -3.3639  -10.1371    7.2750 C.ar      1 <0>        -0.0875
     19 C16        -4.5847  -10.0411    6.6332 C.ar      1 <0>        -0.0924
     20 C17        -4.7678   -9.1101    5.6148 C.ar      1 <0>        -0.0632
     21 C18        -3.7029   -8.2678    5.2439 C.ar      1 <0>        -0.1037
     22 C19        -3.5857   -7.2016    4.2300 C.2       1 <0>         0.5474
     23 O1         -4.4793   -6.8500    3.4847 O.2       1 <0>        -0.4497
     24 C20        -6.0731   -9.0069    4.9265 C.2       1 <0>         0.5413
     25 O2         -6.2288   -8.1925    4.0378 O.2       1 <0>        -0.4903
     26 N4         -7.0898   -9.8158    5.2849 N.am      1 <0>        -0.8515
     27 H1          0.9819    1.8489   -0.0018 H         1 <0>         0.1248
     28 H2         -0.5600    1.8184   -0.8906 H         1 <0>         0.1249
     29 H3         -0.5585    1.8159    0.8894 H         1 <0>         0.1214
     30 H4         -1.8841   -0.2369    0.9111 H         1 <0>         0.1324
     31 H5         -1.9217   -0.1008   -0.8633 H         1 <0>         0.1406
     32 H6         -2.3643   -2.4422   -0.0383 H         1 <0>         0.1269
     33 H7         -0.9331   -2.3325   -1.0969 H         1 <0>         0.0873
     34 H8          1.2586   -2.3705    2.0689 H         1 <0>         0.1254
     35 H9          1.4682   -2.2850    0.2998 H         1 <0>         0.0865
     36 H10         1.6876   -0.0293    1.2360 H         1 <0>         0.1402
     37 H11         0.1311   -0.1970    2.0832 H         1 <0>         0.1320
     38 H12        -2.9402   -3.6243    0.9269 H         1 <0>         0.1282
     39 H13        -3.7515   -5.4337    2.3837 H         1 <0>         0.1603
     40 H14         0.0811   -5.6344    4.2694 H         1 <0>         0.1320
     41 H15         0.8959   -3.8325    2.8053 H         1 <0>         0.1283
     42 H16        -0.7004   -7.8515    4.8359 H         1 <0>         0.1055
     43 H17        -1.2367   -6.6419    6.0371 H         1 <0>         0.1050
     44 H18        -1.3652   -9.3900    7.4168 H         1 <0>         0.1419
     45 H19        -3.2271  -10.8618    8.0641 H         1 <0>         0.1463
     46 H20        -5.3980  -10.6902    6.9224 H         1 <0>         0.1410
     47 H21        -6.9656  -10.4658    5.9941 H         1 <0>         0.3993
     48 H22        -7.9457   -9.7481    4.8335 H         1 <0>         0.4088
     49 H23         0.4768   -0.3282   -0.8272 H         1 <0>         0.4245
@<TRIPOS>BOND
     1    1    2 1
     2    1   27 1
     3    1   28 1
     4    1   29 1
     5    2    7 1
     6    2    3 1
     7    2   49 1
     8    3    4 1
     9    3   30 1
    10    3   31 1
    11    4    5 1
    12    4   32 1
    13    4   33 1
    14    5    6 1
    15    5    8 1
    16    6    7 1
    17    6   34 1
    18    6   35 1
    19    7   36 1
    20    7   37 1
    21    8   13 ar
    22    8    9 ar
    23    9   10 ar
    24    9   38 1
    25   10   11 ar
    26   10   39 1
    27   11   12 ar
    28   11   14 1
    29   12   13 ar
    30   12   40 1
    31   13   41 1
    32   14   22 am
    33   14   15 1
    34   15   16 1
    35   15   42 1
    36   15   43 1
    37   16   21 ar
    38   16   17 ar
    39   17   18 ar
    40   17   44 1
    41   18   19 ar
    42   18   45 1
    43   19   20 ar
    44   19   46 1
    45   20   21 ar
    46   20   24 1
    47   21   22 1
    48   22   23 2
    49   24   25 2
    50   24   26 am
    51   26   47 1
    52   26   48 1
@<TRIPOS>MOLECULE
CHEMBL598978__1
   48    51     0     0     0
SMALL
USER_CHARGES

@<TRIPOS>ATOM
      1 C1         -0.0382    1.4645   -0.0026 C.3       1 <0>         0.0243
      2 N1         -0.0083   -0.0042   -0.0044 N.3       1 <0>        -0.5427
      3 C2         -1.3648   -0.5583   -0.1077 C.3       1 <0>         0.0382
      4 C3         -1.2800   -2.0776   -0.2887 C.3       1 <0>         0.1253
      5 N2         -0.4627   -2.6330    0.8007 N.pl3     1 <0>        -0.6320
      6 C4          0.8572   -2.0357    1.0544 C.3       1 <0>         0.1271
      7 C5          0.6883   -0.5181    1.1825 C.3       1 <0>         0.0385
      8 C6         -0.9282   -3.7012    1.5747 C.ar      1 <0>         0.2014
      9 C7         -2.2202   -4.1781    1.3947 C.ar      1 <0>        -0.1693
     10 C8         -2.6795   -5.2323    2.1587 C.ar      1 <0>        -0.0996
     11 C9         -1.8497   -5.8159    3.1071 C.ar      1 <0>         0.1148
     12 C10        -0.5578   -5.3391    3.2871 C.ar      1 <0>        -0.1050
     13 C11        -0.0964   -4.2887    2.5193 C.ar      1 <0>        -0.1726
     14 N3         -2.3159   -6.8850    3.8823 N.am      1 <0>        -0.5540
     15 C12        -1.5509   -7.5873    4.9190 C.3       1 <0>         0.1387
     16 C13        -2.4661   -8.6522    5.4706 C.ar      1 <0>        -0.0889
     17 C14        -2.3134   -9.6127    6.4480 C.ar      1 <0>        -0.0757
     18 C15        -3.3543  -10.4756    6.7461 C.ar      1 <0>        -0.0929
     19 C16        -4.5549  -10.3815    6.0672 C.ar      1 <0>        -0.0949
     20 C17        -4.7249   -9.4173    5.0778 C.ar      1 <0>        -0.0662
     21 C18        -3.6673   -8.5396    4.7740 C.ar      1 <0>        -0.0983
     22 C19        -3.5404   -7.4343    3.8042 C.2       1 <0>         0.5426
     23 O1         -4.4164   -7.0741    3.0424 O.2       1 <0>        -0.4549
     24 C20        -6.0087   -9.3161    4.3498 C.2       1 <0>         0.5399
     25 O2         -6.1529   -8.4728    3.4865 O.2       1 <0>        -0.4850
     26 N4         -7.0184  -10.1590    4.6438 N.am      1 <0>        -0.8540
     27 H1          0.9818    1.8487   -0.0023 H         1 <0>         0.0705
     28 H2         -0.5595    1.8184   -0.8920 H         1 <0>         0.0703
     29 H3         -0.5592    1.8161    0.8880 H         1 <0>         0.0257
     30 H4         -1.9209   -0.3308    0.8018 H         1 <0>         0.0386
     31 H5         -1.8734   -0.1177   -0.9652 H         1 <0>         0.0859
     32 H6         -2.2811   -2.5073   -0.2510 H         1 <0>         0.0874
     33 H7         -0.8160   -2.3068   -1.2480 H         1 <0>         0.0703
     34 H8          1.2692   -2.4377    1.9801 H         1 <0>         0.0858
     35 H9          1.5267   -2.2609    0.2242 H         1 <0>         0.0695
     36 H10         1.6687   -0.0483    1.2607 H         1 <0>         0.0855
     37 H11         0.1036   -0.2911    2.0740 H         1 <0>         0.0382
     38 H12        -2.8656   -3.7240    0.6574 H         1 <0>         0.1276
     39 H13        -3.6843   -5.6029    2.0190 H         1 <0>         0.1540
     40 H14         0.0873   -5.7929    4.0250 H         1 <0>         0.1246
     41 H15         0.9099   -3.9211    2.6559 H         1 <0>         0.1274
     42 H16        -0.6629   -8.0455    4.4836 H         1 <0>         0.1040
     43 H17        -1.2656   -6.8928    5.7091 H         1 <0>         0.1035
     44 H18        -1.3784   -9.6924    6.9827 H         1 <0>         0.1402
     45 H19        -3.2275  -11.2260    7.5124 H         1 <0>         0.1432
     46 H20        -5.3627  -11.0579    6.3048 H         1 <0>         0.1383
     47 H21        -6.9033  -10.8321    5.3327 H         1 <0>         0.3977
     48 H22        -7.8602  -10.0926    4.1664 H         1 <0>         0.4071
@<TRIPOS>BOND
     1    1    2 1
     2    1   27 1
     3    1   28 1
     4    1   29 1
     5    2    7 1
     6    2    3 1
     7    3    4 1
     8    3   30 1
     9    3   31 1
    10    4    5 1
    11    4   32 1
    12    4   33 1
    13    5    6 1
    14    5    8 1
    15    6    7 1
    16    6   34 1
    17    6   35 1
    18    7   36 1
    19    7   37 1
    20    8   13 ar
    21    8    9 ar
    22    9   10 ar
    23    9   38 1
    24   10   11 ar
    25   10   39 1
    26   11   12 ar
    27   11   14 1
    28   12   13 ar
    29   12   40 1
    30   13   41 1
    31   14   22 am
    32   14   15 1
    33   15   16 1
    34   15   42 1
    35   15   43 1
    36   16   21 ar
    37   16   17 ar
    38   17   18 ar
    39   17   44 1
    40   18   19 ar
    41   18   45 1
    42   19   20 ar
    43   19   46 1
    44   20   21 ar
    45   20   24 1
    46   21   22 1
    47   22   23 2
    48   24   25 2
    49   24   26 am
    50   26   47 1
    51   26   48 1
@<TRIPOS>MOLECULE
CHEMBL1160877
   39    43     0     0     0
SMALL
USER_CHARGES

@<TRIPOS>ATOM
      1 C1         -0.0166    1.3756    0.0096 C.ar      1 <0>        -0.0897
      2 C2          1.1677    2.0974    0.0022 C.ar      1 <0>        -0.1115
      3 C3          2.3849    1.4500   -0.0134 C.ar      1 <0>        -0.0512
      4 C4          2.4248    0.0566   -0.0213 C.ar      1 <0>        -0.1255
      5 C5          1.2201   -0.6753   -0.0133 C.ar      1 <0>        -0.0140
      6 C6          0.0021   -0.0041    0.0020 C.ar      1 <0>        -0.0893
      7 C7          1.2914   -2.1498   -0.0223 C.ar      1 <0>         0.1697
      8 C8          2.5484   -2.7678   -0.0387 C.ar      1 <0>         0.0964
      9 C9          2.6150   -4.1623   -0.0472 C.ar      1 <0>        -0.0685
     10 C10         1.4356   -4.8796   -0.0392 C.ar      1 <0>        -0.1802
     11 C11         0.2187   -4.1989   -0.0229 C.ar      1 <0>         0.3931
     12 N1          0.1798   -2.8788   -0.0146 N.ar      1 <0>        -0.4938
     13 N2         -0.9708   -4.9202   -0.0152 N.pl3     1 <0>        -0.6330
     14 C12        -2.3416   -4.3739   -0.1077 C.3       1 <0>         0.1029
     15 C13        -3.2780   -5.6219   -0.1037 C.3       1 <0>         0.0183
     16 H1         -4.2773   -5.4763   -0.5140 H         1 <0>         0.1876
     17 C14        -2.3534   -6.6455   -0.8551 C.3       1 <0>        -0.1519
     18 C15        -1.1202   -6.4024    0.0814 C.3       1 <0>         0.1386
     19 H2         -0.2268   -6.9897   -0.1307 H         1 <0>         0.1629
     20 C16        -1.7986   -6.6271    1.4682 C.3       1 <0>        -0.0149
     21 N3         -3.2096   -6.1241    1.3050 N.4       1 <0>        -0.5261
     22 N4          3.7138   -2.0188   -0.0459 N.am      1 <0>        -0.6368
     23 C17         3.7014   -0.6736   -0.0385 C.2       1 <0>         0.5555
     24 O1          4.7513   -0.0581   -0.0457 O.2       1 <0>        -0.5064
     25 H3         -0.9617    1.8980    0.0260 H         1 <0>         0.1363
     26 H4          1.1361    3.1769    0.0083 H         1 <0>         0.1396
     27 H5          3.3025    2.0194   -0.0199 H         1 <0>         0.1463
     28 H6         -0.9240   -0.5597    0.0083 H         1 <0>         0.1386
     29 H7          3.5687   -4.6690   -0.0602 H         1 <0>         0.1531
     30 H8          1.4552   -5.9594   -0.0458 H         1 <0>         0.1412
     31 H9         -2.5545   -3.7383    0.7519 H         1 <0>         0.0903
     32 H10        -2.4635   -3.8123   -1.0339 H         1 <0>         0.1087
     33 H11        -2.7283   -7.6670   -0.7916 H         1 <0>         0.1176
     34 H12        -2.1542   -6.3465   -1.8842 H         1 <0>         0.1294
     35 H13        -1.7955   -7.6867    1.7239 H         1 <0>         0.1460
     36 H14        -1.2868   -6.0496    2.2381 H         1 <0>         0.1370
     37 H15        -3.4107   -5.3756    1.9509 H         1 <0>         0.4338
     38 H16         4.5672   -2.4797   -0.0567 H         1 <0>         0.4188
     39 H17        -3.8624   -6.8823    1.4356 H         1 <0>         0.4312
@<TRIPOS>BOND
     1    1    6 ar
     2    1    2 ar
     3    1   25 1
     4    2    3 ar
     5    2   26 1
     6    3    4 ar
     7    3   27 1
     8    4   23 1
     9    4    5 ar
    10    5    6 ar
    11    5    7 1
    12    6   28 1
    13    7   12 ar
    14    7    8 ar
    15    8    9 ar
    16    8   22 1
    17    9   10 ar
    18    9   29 1
    19   10   11 ar
    20   10   30 1
    21   11   12 ar
    22   11   13 1
    23   13   18 1
    24   13   14 1
    25   14   15 1
    26   14   31 1
    27   14   32 1
    28   15   16 1
    29   15   21 1
    30   15   17 1
    31   17   18 1
    32   17   33 1
    33   17   34 1
    34   18   19 1
    35   18   20 1
    36   20   21 1
    37   20   35 1
    38   20   36 1
    39   21   37 1
    40   21   39 1
    41   22   23 am
    42   22   38 1
    43   23   24 2
@<TRIPOS>MOLECULE
CHEMBL194535
   40    43     0     0     0
SMALL
USER_CHARGES

@<TRIPOS>ATOM
      1 C1         -0.0166    1.3754    0.0096 C.ar      1 <0>        -0.0803
      2 C2          1.1677    2.0974    0.0022 C.ar      1 <0>        -0.1309
      3 C3          2.3848    1.4501   -0.0133 C.ar      1 <0>        -0.0474
      4 C4          2.4248    0.0566   -0.0211 C.ar      1 <0>        -0.1441
      5 C5          1.2199   -0.6754   -0.0131 C.ar      1 <0>         0.0032
      6 C6          0.0021   -0.0041    0.0020 C.ar      1 <0>        -0.1223
      7 C7          1.2937   -2.1486   -0.0224 C.ar      1 <0>        -0.0982
      8 C8          0.1332   -2.9209   -0.0157 C.ar      1 <0>        -0.0635
      9 C9          0.2250   -4.2960   -0.0251 C.ar      1 <0>        -0.1396
     10 C10         1.4665   -4.9123   -0.0411 C.ar      1 <0>        -0.0329
     11 C11         2.6220   -4.1607   -0.0479 C.ar      1 <0>        -0.1369
     12 C12         2.5509   -2.7708   -0.0386 C.ar      1 <0>         0.1807
     13 N1          3.7143   -2.0194   -0.0459 N.am      1 <0>        -0.6412
     14 C13         3.7004   -0.6746   -0.0380 C.2       1 <0>         0.5584
     15 O1          4.7501   -0.0591   -0.0449 O.2       1 <0>        -0.5208
     16 C14         1.5538   -6.4168   -0.0507 C.3       1 <0>         0.0900
     17 N2          1.5683   -6.8975   -1.4388 N.3       1 <0>        -0.5316
     18 C15         0.2864   -6.6239   -2.1045 C.3       1 <0>         0.0125
     19 C16         0.3656   -7.0858   -3.5620 C.3       1 <0>         0.0628
     20 O2          0.7095   -8.4734   -3.5990 O.3       1 <0>        -0.3850
     21 C17         1.9528   -8.7757   -2.9601 C.3       1 <0>         0.0630
     22 C18         1.8897   -8.3309   -1.4965 C.3       1 <0>         0.0170
     23 H1         -0.9618    1.8978    0.0260 H         1 <0>         0.1333
     24 H2          1.1361    3.1769    0.0082 H         1 <0>         0.1343
     25 H3          3.3024    2.0196   -0.0197 H         1 <0>         0.1404
     26 H4         -0.9241   -0.5596    0.0082 H         1 <0>         0.1349
     27 H5         -0.8352   -2.4429   -0.0028 H         1 <0>         0.1354
     28 H6         -0.6734   -4.8954   -0.0195 H         1 <0>         0.1281
     29 H7          3.5841   -4.6512   -0.0604 H         1 <0>         0.1342
     30 H8          2.4684   -6.7309    0.4521 H         1 <0>         0.0891
     31 H9          0.6915   -6.8341    0.4693 H         1 <0>         0.0513
     32 H10        -0.5113   -7.1639   -1.5944 H         1 <0>         0.0448
     33 H11         0.0807   -5.5539   -2.0724 H         1 <0>         0.0918
     34 H12        -0.6008   -6.9373   -4.0439 H         1 <0>         0.0991
     35 H13         1.1269   -6.5080   -4.0860 H         1 <0>         0.0600
     36 H14         2.1344   -9.8495   -3.0067 H         1 <0>         0.0998
     37 H15         2.7603   -8.2471   -3.4667 H         1 <0>         0.0606
     38 H16         2.8543   -8.5071   -1.0207 H         1 <0>         0.0883
     39 H17         1.1177   -8.8983   -0.9767 H         1 <0>         0.0457
     40 H18         4.5685   -2.4789   -0.0567 H         1 <0>         0.4160
@<TRIPOS>BOND
     1    1    6 ar
     2    1    2 ar
     3    1   23 1
     4    2    3 ar
     5    2   24 1
     6    3    4 ar
     7    3   25 1
     8    4   14 1
     9    4    5 ar
    10    5    6 ar
    11    5    7 1
    12    6   26 1
    13    7   12 ar
    14    7    8 ar
    15    8    9 ar
    16    8   27 1
    17    9   10 ar
    18    9   28 1
    19   10   11 ar
    20   10   16 1
    21   11   12 ar
    22   11   29 1
    23   12   13 1
    24   13   14 am
    25   13   40 1
    26   14   15 2
    27   16   17 1
    28   16   30 1
    29   16   31 1
    30   17   22 1
    31   17   18 1
    32   18   19 1
    33   18   32 1
    34   18   33 1
    35   19   20 1
    36   19   34 1
    37   19   35 1
    38   20   21 1
    39   21   22 1
    40   21   36 1
    41   21   37 1
    42   22   38 1
    43   22   39 1
@<TRIPOS>MOLECULE
CHEMBL372303
   40    42     0     0     0
SMALL
USER_CHARGES

@<TRIPOS>ATOM
      1 C1         -1.3448    2.1902    0.9610 C.3       1 <0>        -0.0608
      2 N1         -0.6757    0.9189    0.6547 N.4       1 <0>        -0.3732
      3 C2          0.0852    0.4707    1.8287 C.3       1 <0>        -0.0473
      4 C3         -1.6824   -0.0933    0.3081 C.3       1 <0>        -0.0299
      5 C4         -2.3795    0.3075   -0.9665 C.2       1 <0>         0.5001
      6 O1         -2.0683    1.3352   -1.5306 O.2       1 <0>        -0.5124
      7 N2         -3.3487   -0.4760   -1.4795 N.am      1 <0>        -0.6404
      8 C5         -4.0632   -0.0572   -2.6092 C.ar      1 <0>         0.0893
      9 C6         -3.4213    0.6698   -3.6079 C.ar      1 <0>        -0.0674
     10 C7         -4.1135    1.0870   -4.7234 C.ar      1 <0>        -0.1411
     11 C8         -5.4650    0.7844   -4.8630 C.ar      1 <0>         0.1876
     12 C9         -6.1132    0.0515   -3.8576 C.ar      1 <0>        -0.0763
     13 C10        -5.4053   -0.3714   -2.7342 C.ar      1 <0>        -0.0759
     14 C11        -7.5456   -0.2674   -4.0087 C.ar      1 <0>        -0.0072
     15 C12        -8.2391   -0.9902   -3.0440 C.ar      1 <0>        -0.1202
     16 C13        -9.5786   -1.2641   -3.2285 C.ar      1 <0>        -0.0790
     17 C14       -10.2382   -0.8254   -4.3672 C.ar      1 <0>        -0.1222
     18 C15        -9.5681   -0.1077   -5.3347 C.ar      1 <0>        -0.0450
     19 C16        -8.2142    0.1797   -5.1666 C.ar      1 <0>        -0.1383
     20 C17        -7.4604    0.9425   -6.1724 C.2       1 <0>         0.5570
     21 O2         -8.0215    1.3362   -7.1780 O.2       1 <0>        -0.5072
     22 N3         -6.1549    1.2082   -5.9883 N.am      1 <0>        -0.6425
     23 H1         -5.6797    1.7134   -6.6663 H         1 <0>         0.4192
     24 H2         -0.5978    2.9412    1.2181 H         1 <0>         0.1279
     25 H3         -1.9094    2.5228    0.0899 H         1 <0>         0.1396
     26 H4         -2.0237    2.0501    1.8021 H         1 <0>         0.1201
     27 H5         -0.5937    0.3306    2.6698 H         1 <0>         0.1250
     28 H6          0.5817   -0.4726    1.6014 H         1 <0>         0.1259
     29 H7          0.8322    1.2217    2.0858 H         1 <0>         0.1308
     30 H8         -1.1945   -1.0578    0.1675 H         1 <0>         0.1634
     31 H9         -2.4131   -0.1696    1.1133 H         1 <0>         0.1630
     32 H10        -3.5515   -1.3299   -1.0664 H         1 <0>         0.4209
     33 H11        -2.3729    0.9088   -3.5072 H         1 <0>         0.1462
     34 H12        -3.6061    1.6511   -5.4920 H         1 <0>         0.1430
     35 H13        -5.9032   -0.9392   -1.9620 H         1 <0>         0.1414
     36 H14        -7.7317   -1.3355   -2.1553 H         1 <0>         0.1327
     37 H15       -10.1183   -1.8253   -2.4800 H         1 <0>         0.1360
     38 H16       -11.2868   -1.0487   -4.4972 H         1 <0>         0.1384
     39 H17       -10.0890    0.2298   -6.2185 H         1 <0>         0.1442
     40 H18        -0.0472    1.0486   -0.1240 H         1 <0>         0.4344
@<TRIPOS>BOND
     1    1    2 1
     2    1   24 1
     3    1   25 1
     4    1   26 1
     5    2    3 1
     6    2    4 1
     7    2   40 1
     8    3   27 1
     9    3   28 1
    10    3   29 1
    11    4    5 1
    12    4   30 1
    13    4   31 1
    14    5    6 2
    15    5    7 am
    16    7    8 1
    17    7   32 1
    18    8   13 ar
    19    8    9 ar
    20    9   10 ar
    21    9   33 1
    22   10   11 ar
    23   10   34 1
    24   11   22 1
    25   11   12 ar
    26   12   13 ar
    27   12   14 1
    28   13   35 1
    29   14   19 ar
    30   14   15 ar
    31   15   16 ar
    32   15   36 1
    33   16   17 ar
    34   16   37 1
    35   17   18 ar
    36   17   38 1
    37   18   19 ar
    38   18   39 1
    39   19   20 1
    40   20   21 2
    41   20   22 am
    42   22   23 1
@<TRIPOS>MOLECULE
CHEMBL481511
   51    54     0     0     0
SMALL
USER_CHARGES

@<TRIPOS>ATOM
      1 C1         -0.0168    1.3841    0.0097 C.ar      1 <0>        -0.1167
      2 C2          1.1599    2.1013    0.0023 C.ar      1 <0>        -0.0338
      3 C3          2.3771    1.4239   -0.0130 C.ar      1 <0>        -0.1846
      4 C4          2.4012    0.0116   -0.0209 C.ar      1 <0>         0.1552
      5 C5          1.1952   -0.6936   -0.0131 C.ar      1 <0>        -0.0304
      6 C6          0.0021   -0.0041    0.0020 C.ar      1 <0>        -0.0611
      7 Cl1         1.1995   -2.4296   -0.0231 Cl        1 <0>        -0.0455
      8 N1          3.5985   -0.6261   -0.0362 N.2       1 <0>        -0.5114
      9 C7          4.7189    0.0299   -0.0438 C.2       1 <0>         0.3941
     10 N2          4.7905    1.3868   -0.0372 N.am      1 <0>        -0.6523
     11 H1          5.6572    1.8223   -0.0438 H         1 <0>         0.4224
     12 C8          3.6636    2.1362   -0.0220 C.2       1 <0>         0.5535
     13 O1          3.7131    3.3524   -0.0163 O.2       1 <0>        -0.4901
     14 C9          6.0060   -0.7539   -0.0603 C.3       1 <0>        -0.0713
     15 C10         5.6914   -2.2512   -0.0648 C.3       1 <0>        -0.1348
     16 C11         6.9981   -3.0468   -0.0815 C.3       1 <0>        -0.0123
     17 N3          6.6960   -4.4844   -0.0858 N.4       1 <0>        -0.3861
     18 C12         7.9485   -5.2510    0.0072 C.3       1 <0>        -0.0029
     19 C13         7.6040   -6.7206    0.2626 C.3       1 <0>        -0.1133
     20 C14         6.5703   -7.1754   -0.7307 C.2       1 <0>        -0.0558
     21 C15         5.8569   -6.3282   -1.4429 C.2       1 <0>        -0.1786
     22 C16         6.0109   -4.8385   -1.3344 C.3       1 <0>         0.0311
     23 C17         6.3478   -8.6237   -0.9142 C.ar      1 <0>        -0.0535
     24 C18         5.8322   -9.3894    0.1345 C.ar      1 <0>        -0.1002
     25 C19         5.6254  -10.7342   -0.0354 C.ar      1 <0>        -0.0675
     26 C20         5.9306  -11.3391   -1.2582 C.ar      1 <0>        -0.0036
     27 C21         6.4464  -10.5725   -2.3072 C.ar      1 <0>        -0.0673
     28 C22         6.6475   -9.2267   -2.1383 C.ar      1 <0>        -0.0991
     29 C23         5.7152  -12.7436   -1.4359 C.1       1 <0>         0.2345
     30 N4          5.5444  -13.8578   -1.5769 N.1       1 <0>        -0.3885
     31 H2         -0.9619    1.9065    0.0260 H         1 <0>         0.1497
     32 H3          1.1386    3.1811    0.0079 H         1 <0>         0.1490
     33 H4         -0.9296   -0.5502    0.0084 H         1 <0>         0.1492
     34 H5          6.5749   -0.4994   -0.9546 H         1 <0>         0.1112
     35 H6          6.5922   -0.5084    0.8253 H         1 <0>         0.1113
     36 H7          5.1225   -2.5056    0.8295 H         1 <0>         0.1022
     37 H8          5.1052   -2.4966   -0.9503 H         1 <0>         0.1019
     38 H9          7.5670   -2.7924   -0.9758 H         1 <0>         0.1330
     39 H10         7.5843   -2.8014    0.8041 H         1 <0>         0.1348
     40 H11         8.5022   -5.1621   -0.9274 H         1 <0>         0.1340
     41 H12         8.5515   -4.8682    0.8306 H         1 <0>         0.1385
     42 H13         8.5026   -7.3281    0.1553 H         1 <0>         0.1271
     43 H14         7.2099   -6.8309    1.2729 H         1 <0>         0.1082
     44 H15         5.1285   -6.7224   -2.1361 H         1 <0>         0.1530
     45 H16         5.0259   -4.3720   -1.3499 H         1 <0>         0.1447
     46 H17         6.5928   -4.4739   -2.1808 H         1 <0>         0.1405
     47 H18         5.5967   -8.9220    1.0793 H         1 <0>         0.1355
     48 H19         5.2271  -11.3260    0.7755 H         1 <0>         0.1407
     49 H20         6.6823  -11.0394   -3.2521 H         1 <0>         0.1409
     50 H21         7.0419   -8.6336   -2.9501 H         1 <0>         0.1371
     51 H22         6.1031   -4.7072    0.6996 H         1 <0>         0.4274
@<TRIPOS>BOND
     1    1    6 ar
     2    1    2 ar
     3    1   31 1
     4    2    3 ar
     5    2   32 1
     6    3   12 1
     7    3    4 ar
     8    4    5 ar
     9    4    8 1
    10    5    6 ar
    11    5    7 1
    12    6   33 1
    13    8    9 2
    14    9   10 1
    15    9   14 1
    16   10   11 1
    17   10   12 am
    18   12   13 2
    19   14   15 1
    20   14   34 1
    21   14   35 1
    22   15   16 1
    23   15   36 1
    24   15   37 1
    25   16   17 1
    26   16   38 1
    27   16   39 1
    28   17   22 1
    29   17   18 1
    30   17   51 1
    31   18   19 1
    32   18   40 1
    33   18   41 1
    34   19   20 1
    35   19   42 1
    36   19   43 1
    37   20   21 2
    38   20   23 1
    39   21   22 1
    40   21   44 1
    41   22   45 1
    42   22   46 1
    43   23   28 ar
    44   23   24 ar
    45   24   25 ar
    46   24   47 1
    47   25   26 ar
    48   25   48 1
    49   26   27 ar
    50   26   29 1
    51   27   28 ar
    52   27   49 1
    53   28   50 1
    54   29   30 3
@<TRIPOS>MOLECULE
CHEMBL558156
   45    48     0     0     0
SMALL
USER_CHARGES

@<TRIPOS>ATOM
      1 C1         -0.0163    1.3508    0.0095 C.2       1 <0>        -0.1832
      2 C2          1.3084    1.7995   -0.0008 C.2       1 <0>        -0.0763
      3 C3          2.1132    0.6819   -0.0144 C.2       1 <0>        -0.0731
      4 C4          3.5667    0.5049   -0.0288 C.2       1 <0>         0.5861
      5 O1          4.3021    1.4751   -0.0303 O.2       1 <0>        -0.4950
      6 N1          4.0850   -0.7393   -0.0400 N.am      1 <0>        -0.6534
      7 H1          5.0474   -0.8601   -0.0495 H         1 <0>         0.4255
      8 C5          3.2464   -1.8551   -0.0374 C.ar      1 <0>         0.1518
      9 C6          3.7998   -3.1262   -0.0485 C.ar      1 <0>        -0.0679
     10 C7          2.9693   -4.2469   -0.0461 C.ar      1 <0>        -0.1204
     11 C8          1.5808   -4.0857   -0.0326 C.ar      1 <0>        -0.0851
     12 C9          1.0338   -2.8225   -0.0216 C.ar      1 <0>        -0.1065
     13 C10         1.8586   -1.7024   -0.0235 C.ar      1 <0>         0.1312
     14 N2          1.2917   -0.4267   -0.0125 N.pl3     1 <0>        -0.3829
     15 C11         0.0021   -0.0041    0.0020 C.2       1 <0>         0.0306
     16 C12         3.5561   -5.6020   -0.0583 C.2       1 <0>         0.5740
     17 O2          4.7638   -5.7413   -0.0705 O.2       1 <0>        -0.5152
     18 N3          2.7529   -6.6843   -0.0560 N.am      1 <0>        -0.7303
     19 C13         3.3351   -8.0286   -0.0681 C.3       1 <0>         0.0971
     20 C14         2.2141   -9.0699   -0.0626 C.3       1 <0>        -0.0178
     21 N4          2.7979  -10.4178   -0.0747 N.4       1 <0>        -0.3912
     22 C15         3.4802  -10.6922    1.2158 C.3       1 <0>        -0.0109
     23 C16         3.5248  -12.2399    1.2712 C.3       1 <0>        -0.1454
     24 C17         2.1681  -12.6472    0.6520 C.3       1 <0>        -0.1455
     25 C18         1.7304  -11.4349   -0.1906 C.3       1 <0>        -0.0071
     26 H2         -0.8981    1.9741    0.0253 H         1 <0>         0.1618
     27 H3          1.6380    2.8280    0.0011 H         1 <0>         0.1607
     28 H4          4.8728   -3.2485   -0.0593 H         1 <0>         0.1565
     29 H5          0.9368   -4.9527   -0.0311 H         1 <0>         0.1374
     30 H6         -0.0393   -2.7008   -0.0111 H         1 <0>         0.1488
     31 H7         -0.8681   -0.6437    0.0072 H         1 <0>         0.1788
     32 H8          1.7893   -6.5731   -0.0463 H         1 <0>         0.4082
     33 H9          3.9425   -8.1534   -0.9646 H         1 <0>         0.0918
     34 H10         3.9594   -8.1621    0.8153 H         1 <0>         0.0917
     35 H11         1.6067   -8.9451    0.8338 H         1 <0>         0.1374
     36 H12         1.5898   -8.9363   -0.9460 H         1 <0>         0.1381
     37 H13         4.4885  -10.2781    1.2135 H         1 <0>         0.1382
     38 H14         2.9015  -10.2939    2.0492 H         1 <0>         0.1357
     39 H15         4.3520  -12.6236    0.6741 H         1 <0>         0.0997
     40 H16         3.5982  -12.5870    2.3019 H         1 <0>         0.1181
     41 H17         2.2902  -13.5249    0.0173 H         1 <0>         0.1066
     42 H18         1.4383  -12.8457    1.4370 H         1 <0>         0.1048
     43 H19         0.7925  -11.0344    0.1943 H         1 <0>         0.1319
     44 H20         1.6109  -11.7308   -1.2328 H         1 <0>         0.1344
     45 H21         3.4493  -10.5085   -0.8400 H         1 <0>         0.4303
@<TRIPOS>BOND
     1    1   15 2
     2    1    2 1
     3    1   26 1
     4    2    3 2
     5    2   27 1
     6    3   14 1
     7    3    4 1
     8    4    5 2
     9    4    6 am
    10    6    7 1
    11    6    8 1
    12    8   13 ar
    13    8    9 ar
    14    9   10 ar
    15    9   28 1
    16   10   11 ar
    17   10   16 1
    18   11   12 ar
    19   11   29 1
    20   12   13 ar
    21   12   30 1
    22   13   14 1
    23   14   15 1
    24   15   31 1
    25   16   17 2
    26   16   18 am
    27   18   19 1
    28   18   32 1
    29   19   20 1
    30   19   33 1
    31   19   34 1
    32   20   21 1
    33   20   35 1
    34   20   36 1
    35   21   25 1
    36   21   22 1
    37   21   45 1
    38   22   23 1
    39   22   37 1
    40   22   38 1
    41   23   24 1
    42   23   39 1
    43   23   40 1
    44   24   25 1
    45   24   41 1
    46   24   42 1
    47   25   43 1
    48   25   44 1
@<TRIPOS>MOLECULE
CHEMBL590805
   61    66     0     0     0
SMALL
USER_CHARGES

@<TRIPOS>ATOM
      1 C1          4.9660    3.2013    1.0608 C.ar      1 <0>        -0.0339
      2 C2          6.3513    3.3092    1.1750 C.ar      1 <0>        -0.1064
      3 C3          7.1500    2.2084    1.1141 C.ar      1 <0>        -0.0657
      4 C4          6.5711    0.9418    0.9332 C.ar      1 <0>        -0.1252
      5 C5          7.3468   -0.2258    0.8639 C.ar      1 <0>         0.2195
      6 N1          6.7692   -1.3918    0.6945 N.ar      1 <0>        -0.4927
      7 C6          5.4503   -1.5311    0.5816 C.ar      1 <0>         0.3924
      8 C7          4.6027   -0.4435    0.6370 C.ar      1 <0>        -0.1784
      9 C8          5.1599    0.8331    0.8170 C.ar      1 <0>         0.0603
     10 C9          4.3687    1.9903    0.8846 C.ar      1 <0>        -0.1352
     11 N2          4.9138   -2.8029    0.4032 N.pl3     1 <0>        -0.6059
     12 C10         3.4583   -3.0062    0.3954 C.3       1 <0>         0.1025
     13 C11         3.0692   -3.7124   -0.9093 C.3       1 <0>         0.0958
     14 N3          3.9479   -4.8759   -1.0937 N.am      1 <0>        -0.6136
     15 C12         5.4034   -4.6725   -1.0858 C.3       1 <0>         0.0837
     16 C13         5.7924   -3.9655    0.2133 C.3       1 <0>         0.0893
     17 C14         3.4283   -6.1074   -1.2665 C.2       1 <0>         0.5700
     18 O1          2.2247   -6.2521   -1.3573 O.2       1 <0>        -0.4985
     19 C15         4.3212   -7.2812   -1.3455 C.ar      1 <0>        -0.1684
     20 C16         5.3690   -7.3051   -2.2686 C.ar      1 <0>        -0.0637
     21 C17         6.1991   -8.4035   -2.3369 C.ar      1 <0>        -0.0966
     22 C18         5.9971   -9.4832   -1.4939 C.ar      1 <0>        -0.0626
     23 C19         4.9628   -9.4693   -0.5774 C.ar      1 <0>        -0.1439
     24 C20         4.1253   -8.3717   -0.4926 C.ar      1 <0>         0.1530
     25 F1          3.1176   -8.3560    0.4072 F         1 <0>        -0.1203
     26 C21         7.3298   -8.4296   -3.3329 C.3       1 <0>        -0.0416
     27 C22         6.8075   -8.8753   -4.6743 C.2       1 <0>         0.0054
     28 C23         6.2518   -7.9867   -5.4847 C.2       1 <0>         0.0980
     29 N4          5.7548   -8.3392   -6.7287 N.am      1 <0>        -0.6448
     30 H1          5.3541   -7.6636   -7.2978 H         1 <0>         0.4271
     31 C24         5.8259   -9.6197   -7.1530 C.2       1 <0>         0.5819
     32 O2          5.3916   -9.9381   -8.2457 O.2       1 <0>        -0.4910
     33 C25         6.4361  -10.6156   -6.2723 C.2       1 <0>        -0.0368
     34 N5          6.9221  -10.2116   -5.0430 N.pl3     1 <0>        -0.3415
     35 C26         7.4418  -11.2944   -4.4139 C.2       1 <0>         0.0919
     36 C27         7.3029  -12.3809   -5.2182 C.2       1 <0>        -0.0816
     37 C28         6.6627  -11.9694   -6.3906 C.2       1 <0>        -0.0721
     38 Cl1         7.8171  -13.9973   -4.8489 Cl        1 <0>        -0.0067
     39 Cl2         8.1678  -11.2928   -2.8371 Cl        1 <0>         0.0158
     40 H2          4.3569    4.0913    1.1174 H         1 <0>         0.1492
     41 H3          6.7983    4.2824    1.3138 H         1 <0>         0.1491
     42 H4          8.2216    2.3085    1.2039 H         1 <0>         0.1529
     43 H5          8.4216   -0.1644    0.9498 H         1 <0>         0.2156
     44 H6          3.5343   -0.5712    0.5440 H         1 <0>         0.1788
     45 H7          3.2945    1.9208    0.7979 H         1 <0>         0.1520
     46 H8          3.1707   -3.6244    1.2458 H         1 <0>         0.0971
     47 H9          2.9538   -2.0418    0.4538 H         1 <0>         0.1118
     48 H10         2.0321   -4.0428   -0.8512 H         1 <0>         0.1206
     49 H11         3.1906   -3.0259   -1.7472 H         1 <0>         0.0836
     50 H12         5.9079   -5.6370   -1.1443 H         1 <0>         0.1183
     51 H13         5.6910   -4.0543   -1.9362 H         1 <0>         0.0846
     52 H14         6.8291   -3.6344    0.1515 H         1 <0>         0.0858
     53 H15         5.6748   -4.6536    1.0504 H         1 <0>         0.1010
     54 H16         5.5284   -6.4646   -2.9279 H         1 <0>         0.1382
     55 H17         6.6510  -10.3407   -1.5530 H         1 <0>         0.1432
     56 H18         4.8107  -10.3152    0.0766 H         1 <0>         0.1511
     57 H19         7.7576   -7.4311   -3.4230 H         1 <0>         0.1086
     58 H20         8.0976   -9.1245   -2.9927 H         1 <0>         0.1065
     59 H21         6.1839   -6.9571   -5.1659 H         1 <0>         0.1787
     60 H22         6.4047  -12.5925   -7.2342 H         1 <0>         0.1759
     61 H23         7.3263   -2.1847    0.6493 H         1 <0>         0.4382
@<TRIPOS>BOND
     1    1   10 ar
     2    1    2 ar
     3    1   40 1
     4    2    3 ar
     5    2   41 1
     6    3    4 ar
     7    3   42 1
     8    4    9 ar
     9    4    5 ar
    10    5    6 ar
    11    5   43 1
    12    6    7 ar
    13    6   61 1
    14    7    8 ar
    15    7   11 1
    16    8    9 ar
    17    8   44 1
    18    9   10 ar
    19   10   45 1
    20   11   16 1
    21   11   12 1
    22   12   13 1
    23   12   46 1
    24   12   47 1
    25   13   14 1
    26   13   48 1
    27   13   49 1
    28   14   15 1
    29   14   17 am
    30   15   16 1
    31   15   50 1
    32   15   51 1
    33   16   52 1
    34   16   53 1
    35   17   18 2
    36   17   19 1
    37   19   24 ar
    38   19   20 ar
    39   20   21 ar
    40   20   54 1
    41   21   22 ar
    42   21   26 1
    43   22   23 ar
    44   22   55 1
    45   23   24 ar
    46   23   56 1
    47   24   25 1
    48   26   27 1
    49   26   57 1
    50   26   58 1
    51   27   34 1
    52   27   28 2
    53   28   29 1
    54   28   59 1
    55   29   30 1
    56   29   31 am
    57   31   32 2
    58   31   33 1
    59   33   37 2
    60   33   34 1
    61   34   35 1
    62   35   36 2
    63   35   39 1
    64   36   37 1
    65   36   38 1
    66   37   60 1
@<TRIPOS>MOLECULE
CHEMBL590805__1
   60    65     0     0     0
SMALL
USER_CHARGES

@<TRIPOS>ATOM
      1 C1         -4.5720    0.3355   -1.9284 C.ar      1 <0>        -0.0823
      2 C2         -3.8701    1.5400   -1.9333 C.ar      1 <0>        -0.1438
      3 C3         -2.5274    1.5727   -1.7111 C.ar      1 <0>        -0.0676
      4 C4         -1.8354    0.3741   -1.4728 C.ar      1 <0>        -0.1616
      5 C5         -0.4520    0.3499   -1.2375 C.ar      1 <0>         0.1993
      6 N1          0.1595   -0.7902   -1.0182 N.ar      1 <0>        -0.5328
      7 C6         -0.4793   -1.9579   -1.0066 C.ar      1 <0>         0.3947
      8 C7         -1.8392   -2.0385   -1.2272 C.ar      1 <0>        -0.2515
      9 C8         -2.5514   -0.8522   -1.4681 C.ar      1 <0>         0.0265
     10 C9         -3.9354   -0.8466   -1.7011 C.ar      1 <0>        -0.1333
     11 N2          0.2410   -3.1245   -0.7669 N.pl3     1 <0>        -0.6106
     12 C10         1.6977   -3.0787   -0.5781 C.3       1 <0>         0.1114
     13 C11         2.0392   -3.7407    0.7626 C.3       1 <0>         0.0979
     14 N3          1.3565   -5.0403    0.8320 N.am      1 <0>        -0.6047
     15 C12        -0.1002   -5.0861    0.6432 C.3       1 <0>         0.0836
     16 C13        -0.4425   -4.4234   -0.6919 C.3       1 <0>         0.1081
     17 C14         2.0540   -6.1699    1.0641 C.2       1 <0>         0.5642
     18 O1          3.2519   -6.1146    1.2636 O.2       1 <0>        -0.5156
     19 C15         1.3629   -7.4751    1.0762 C.ar      1 <0>        -0.1592
     20 C16         0.2536   -7.6743    1.9011 C.ar      1 <0>        -0.0585
     21 C17        -0.3872   -8.8949    1.9073 C.ar      1 <0>        -0.1003
     22 C18         0.0655   -9.9238    1.0989 C.ar      1 <0>        -0.0674
     23 C19         1.1626   -9.7367    0.2794 C.ar      1 <0>        -0.1477
     24 C20         1.8123   -8.5158    0.2575 C.ar      1 <0>         0.1514
     25 F1          2.8814   -8.3313   -0.5476 F         1 <0>        -0.1214
     26 C21        -1.5841   -9.1101    2.7972 C.3       1 <0>        -0.0415
     27 C22        -1.1205   -9.5012    4.1768 C.2       1 <0>         0.0068
     28 C23        -0.7702   -8.5574    5.0380 C.2       1 <0>         0.0984
     29 N4         -0.3366   -8.8581    6.3188 N.am      1 <0>        -0.6433
     30 H1         -0.0879   -8.1427    6.9247 H         1 <0>         0.4273
     31 C24        -0.2591  -10.1431    6.7277 C.2       1 <0>         0.5822
     32 O2          0.1208  -10.4162    7.8525 O.2       1 <0>        -0.4967
     33 C25        -0.6416  -11.1996    5.7911 C.2       1 <0>        -0.0372
     34 N5         -1.0730  -10.8468    4.5263 N.pl3     1 <0>        -0.3384
     35 C26        -1.3755  -11.9809    3.8477 C.2       1 <0>         0.0931
     36 C27        -1.1514  -13.0510    4.6548 C.2       1 <0>        -0.0838
     37 C28        -0.6804  -12.5739    5.8813 C.2       1 <0>        -0.0751
     38 Cl1        -1.3941  -14.7173    4.2324 Cl        1 <0>        -0.0112
     39 Cl2        -1.9558  -12.0541    2.2132 Cl        1 <0>         0.0172
     40 H2         -5.6377    0.3404   -2.1032 H         1 <0>         0.1247
     41 H3         -4.4005    2.4628   -2.1167 H         1 <0>         0.1247
     42 H4         -1.9978    2.5139   -1.7185 H         1 <0>         0.1307
     43 H5          0.1106    1.2718   -1.2372 H         1 <0>         0.1663
     44 H6         -2.3446   -2.9929   -1.2149 H         1 <0>         0.1346
     45 H7         -4.4912   -1.7726   -1.6998 H         1 <0>         0.1275
     46 H8          2.1887   -3.6182   -1.3880 H         1 <0>         0.0666
     47 H9          2.0331   -2.0416   -0.5700 H         1 <0>         0.1116
     48 H10         3.1167   -3.8892    0.8332 H         1 <0>         0.1058
     49 H11         1.7006   -3.1054    1.5810 H         1 <0>         0.0757
     50 H12        -0.4356   -6.1231    0.6351 H         1 <0>         0.1035
     51 H13        -0.5912   -4.5466    1.4531 H         1 <0>         0.0796
     52 H14        -1.5201   -4.2741   -0.7589 H         1 <0>         0.1006
     53 H15        -0.1074   -5.0608   -1.5101 H         1 <0>         0.0733
     54 H16        -0.1012   -6.8738    2.5332 H         1 <0>         0.1389
     55 H17        -0.4411  -10.8775    1.1089 H         1 <0>         0.1401
     56 H18         1.5107  -10.5439   -0.3480 H         1 <0>         0.1476
     57 H19        -2.1634   -8.1887    2.8562 H         1 <0>         0.1105
     58 H20        -2.2059   -9.9044    2.3841 H         1 <0>         0.1052
     59 H21        -0.8240   -7.5229    4.7323 H         1 <0>         0.1819
     60 H22        -0.4091  -13.1691    6.7406 H         1 <0>         0.1742
@<TRIPOS>BOND
     1    1   10 ar
     2    1    2 ar
     3    1   40 1
     4    2    3 ar
     5    2   41 1
     6    3    4 ar
     7    3   42 1
     8    4    9 ar
     9    4    5 ar
    10    5    6 ar
    11    5   43 1
    12    6    7 ar
    13    7    8 ar
    14    7   11 1
    15    8    9 ar
    16    8   44 1
    17    9   10 ar
    18   10   45 1
    19   11   16 1
    20   11   12 1
    21   12   13 1
    22   12   46 1
    23   12   47 1
    24   13   14 1
    25   13   48 1
    26   13   49 1
    27   14   15 1
    28   14   17 am
    29   15   16 1
    30   15   50 1
    31   15   51 1
    32   16   52 1
    33   16   53 1
    34   17   18 2
    35   17   19 1
    36   19   24 ar
    37   19   20 ar
    38   20   21 ar
    39   20   54 1
    40   21   22 ar
    41   21   26 1
    42   22   23 ar
    43   22   55 1
    44   23   24 ar
    45   23   56 1
    46   24   25 1
    47   26   27 1
    48   26   57 1
    49   26   58 1
    50   27   34 1
    51   27   28 2
    52   28   29 1
    53   28   59 1
    54   29   30 1
    55   29   31 am
    56   31   32 2
    57   31   33 1
    58   33   37 2
    59   33   34 1
    60   34   35 1
    61   35   36 2
    62   35   39 1
    63   36   37 1
    64   36   38 1
    65   37   60 1
@<TRIPOS>MOLECULE
CHEMBL560176
   39    42     0     0     0
SMALL
USER_CHARGES

@<TRIPOS>ATOM
      1 C1         -0.7337    1.6966    0.7123 C.3       1 <0>         0.0255
      2 N1         -0.4670    0.2619    0.5437 N.3       1 <0>        -0.5444
      3 C2         -1.7002   -0.4686    0.2219 C.3       1 <0>         0.0415
      4 C3         -1.3544   -1.9211   -0.1229 C.3       1 <0>         0.1172
      5 N2         -0.5657   -2.4883    0.9814 N.am      1 <0>        -0.6062
      6 C4          0.6102   -1.7409    1.4524 C.3       1 <0>         0.0930
      7 C5          0.1870   -0.2955    1.7352 C.3       1 <0>         0.0413
      8 C6         -0.9112   -3.6622    1.5465 C.2       1 <0>         0.6088
      9 O1         -1.9507   -4.2067    1.2294 O.2       1 <0>        -0.5304
     10 C7         -0.0261   -4.2873    2.5516 C.2       1 <0>         0.0662
     11 C8         -0.3279   -5.4237    3.3155 C.2       1 <0>        -0.2824
     12 C9          0.7599   -5.6820    4.1326 C.2       1 <0>         0.3599
     13 N3          0.9711   -6.6510    5.0442 N.2       1 <0>        -0.6112
     14 C10         2.0870   -6.7318    5.7306 C.2       1 <0>         0.4748
     15 O2          2.2651   -7.7196    6.6386 O.3       1 <0>        -0.6564
     16 C11         3.1395   -5.7343    5.4983 C.ar      1 <0>        -0.1588
     17 C12         4.3481   -5.7655    6.1949 C.ar      1 <0>        -0.0366
     18 C13         5.2981   -4.8145    5.9430 C.ar      1 <0>        -0.1579
     19 C14         5.0710   -3.8199    5.0025 C.ar      1 <0>        -0.0846
     20 C15         3.8828   -3.7710    4.3033 C.ar      1 <0>        -0.1451
     21 C16         2.9064   -4.7277    4.5438 C.ar      1 <0>         0.1950
     22 N4          1.6986   -4.7213    3.8671 N.pl3     1 <0>        -0.3505
     23 N5          1.1853   -3.8731    2.8778 N.2       1 <0>        -0.3218
     24 H1          0.2062    2.2243    0.8741 H         1 <0>         0.0687
     25 H2         -1.2181    2.0839   -0.1841 H         1 <0>         0.0675
     26 H3         -1.3871    1.8462    1.5718 H         1 <0>         0.0242
     27 H4         -2.3698   -0.4484    1.0818 H         1 <0>         0.0389
     28 H5         -2.1891    0.0013   -0.6314 H         1 <0>         0.0857
     29 H6         -2.2719   -2.4955   -0.2504 H         1 <0>         0.0967
     30 H7         -0.7702   -1.9499   -1.0426 H         1 <0>         0.0747
     31 H8          0.9915   -2.1963    2.3664 H         1 <0>         0.1365
     32 H9          1.3832   -1.7525    0.6841 H         1 <0>         0.0721
     33 H10         1.0668    0.2999    1.9793 H         1 <0>         0.0860
     34 H11        -0.5089   -0.2777    2.5739 H         1 <0>         0.0374
     35 H12        -1.2438   -5.9944    3.2743 H         1 <0>         0.1517
     36 H13         4.5322   -6.5360    6.9290 H         1 <0>         0.1395
     37 H14         6.2339   -4.8376    6.4816 H         1 <0>         0.1243
     38 H15         5.8319   -3.0764    4.8163 H         1 <0>         0.1259
     39 H16         3.7134   -2.9932    3.5734 H         1 <0>         0.1334
@<TRIPOS>BOND
     1    1    2 1
     2    1   24 1
     3    1   25 1
     4    1   26 1
     5    2    7 1
     6    2    3 1
     7    3    4 1
     8    3   27 1
     9    3   28 1
    10    4    5 1
    11    4   29 1
    12    4   30 1
    13    5    6 1
    14    5    8 am
    15    6    7 1
    16    6   31 1
    17    6   32 1
    18    7   33 1
    19    7   34 1
    20    8    9 2
    21    8   10 1
    22   10   23 2
    23   10   11 1
    24   11   12 2
    25   11   35 1
    26   12   22 1
    27   12   13 1
    28   13   14 2
    29   14   15 1
    30   14   16 1
    31   16   21 ar
    32   16   17 ar
    33   17   18 ar
    34   17   36 1
    35   18   19 ar
    36   18   37 1
    37   19   20 ar
    38   19   38 1
    39   20   21 ar
    40   20   39 1
    41   21   22 1
    42   22   23 1
@<TRIPOS>MOLECULE
CHEMBL560176__1
   40    43     0     0     0
SMALL
USER_CHARGES

@<TRIPOS>ATOM
      1 C1         -0.6989    1.7338    0.7228 C.3       1 <0>        -0.0457
      2 N1         -0.4345    0.2992    0.5493 N.4       1 <0>        -0.3861
      3 C2         -1.7024   -0.4068    0.3256 C.3       1 <0>        -0.0191
      4 C3         -1.4186   -1.8834    0.0308 C.3       1 <0>         0.0895
      5 N2         -0.6047   -2.4298    1.1277 N.am      1 <0>        -0.6275
      6 C4          0.6032   -1.6920    1.5286 C.3       1 <0>         0.0648
      7 C5          0.2239   -0.2244    1.7527 C.3       1 <0>        -0.0207
      8 C6         -0.9558   -3.5737    1.7479 C.2       1 <0>         0.6219
      9 O1         -2.0172   -4.1056    1.4866 O.2       1 <0>        -0.5019
     10 C7         -0.0505   -4.1813    2.7457 C.2       1 <0>         0.0522
     11 C8         -0.3501   -5.2821    3.5608 C.2       1 <0>        -0.2765
     12 C9          0.7591   -5.5347    4.3505 C.2       1 <0>         0.3708
     13 N3          0.9806   -6.4743    5.2900 N.2       1 <0>        -0.6086
     14 C10         2.1173   -6.5548    5.9416 C.2       1 <0>         0.4766
     15 O2          2.3052   -7.5127    6.8793 O.3       1 <0>        -0.6386
     16 C11         3.1820   -5.5902    5.6376 C.ar      1 <0>        -0.1548
     17 C12         4.4127   -5.6228    6.2946 C.ar      1 <0>        -0.0333
     18 C13         5.3733   -4.7030    5.9763 C.ar      1 <0>        -0.1513
     19 C14         5.1354   -3.7385    5.0075 C.ar      1 <0>        -0.0823
     20 C15         3.9255   -3.6887    4.3466 C.ar      1 <0>        -0.1470
     21 C16         2.9379   -4.6140    4.6547 C.ar      1 <0>         0.1887
     22 N4          1.7082   -4.6054    4.0186 N.pl3     1 <0>        -0.3426
     23 N5          1.1796   -3.7826    3.0160 N.2       1 <0>        -0.3435
     24 H1          0.2424    2.2602    0.8810 H         1 <0>         0.1233
     25 H2         -1.1877    2.1237   -0.1699 H         1 <0>         0.1223
     26 H3         -1.3475    1.8818    1.5862 H         1 <0>         0.1205
     27 H4         -2.3249   -0.3272    1.2169 H         1 <0>         0.1328
     28 H5         -2.2224    0.0396   -0.5220 H         1 <0>         0.1410
     29 H6         -2.3588   -2.4309   -0.0355 H         1 <0>         0.1359
     30 H7         -0.8732   -1.9710   -0.9088 H         1 <0>         0.0931
     31 H8          0.9998   -2.1130    2.4525 H         1 <0>         0.1739
     32 H9          1.3528   -1.7603    0.7402 H         1 <0>         0.0915
     33 H10         1.1235    0.3564    1.9567 H         1 <0>         0.1416
     34 H11        -0.4568   -0.1504    2.6008 H         1 <0>         0.1316
     35 H12        -1.2787   -5.8335    3.5713 H         1 <0>         0.1541
     36 H13         4.6053   -6.3700    7.0503 H         1 <0>         0.1433
     37 H14         6.3261   -4.7273    6.4841 H         1 <0>         0.1286
     38 H15         5.9051   -3.0194    4.7687 H         1 <0>         0.1278
     39 H16         3.7478   -2.9345    3.5943 H         1 <0>         0.1297
     40 H17         0.1683    0.1637   -0.2484 H         1 <0>         0.4237
@<TRIPOS>BOND
     1    1    2 1
     2    1   24 1
     3    1   25 1
     4    1   26 1
     5    2    7 1
     6    2    3 1
     7    2   40 1
     8    3    4 1
     9    3   27 1
    10    3   28 1
    11    4    5 1
    12    4   29 1
    13    4   30 1
    14    5    6 1
    15    5    8 am
    16    6    7 1
    17    6   31 1
    18    6   32 1
    19    7   33 1
    20    7   34 1
    21    8    9 2
    22    8   10 1
    23   10   23 2
    24   10   11 1
    25   11   12 2
    26   11   35 1
    27   12   22 1
    28   12   13 1
    29   13   14 2
    30   14   15 1
    31   14   16 1
    32   16   21 ar
    33   16   17 ar
    34   17   18 ar
    35   17   36 1
    36   18   19 ar
    37   18   37 1
    38   19   20 ar
    39   19   38 1
    40   20   21 ar
    41   20   39 1
    42   21   22 1
    43   22   23 1
@<TRIPOS>MOLECULE
CHEMBL337386
   32    35     0     0     0
SMALL
USER_CHARGES

@<TRIPOS>ATOM
      1 C1         -0.0167    1.3777    0.0096 C.ar      1 <0>        -0.1117
      2 C2          1.1625    2.0990    0.0022 C.ar      1 <0>        -0.0849
      3 C3          2.3901    1.4409   -0.0130 C.ar      1 <0>        -0.0895
      4 C4          2.4207    0.0290   -0.0209 C.ar      1 <0>         0.1060
      5 C5          1.2098   -0.6853   -0.0132 C.ar      1 <0>         0.0422
      6 C6          0.0021   -0.0041    0.0020 C.ar      1 <0>        -0.0789
      7 N1          1.5535   -2.0245   -0.0242 N.pl3     1 <0>        -0.5919
      8 H1          0.9415   -2.7771   -0.0225 H         1 <0>         0.4260
      9 C7          2.9197   -2.0873   -0.0378 C.2       1 <0>         0.3338
     10 N2          3.4183   -0.8727   -0.0358 N.2       1 <0>        -0.4517
     11 C8          3.7139   -3.3330   -0.0522 C.ar      1 <0>        -0.0240
     12 C9          3.0713   -4.5727   -0.0583 C.ar      1 <0>        -0.0878
     13 C10         3.8139   -5.7339   -0.0718 C.ar      1 <0>        -0.0995
     14 C11         5.2006   -5.6762   -0.0797 C.ar      1 <0>         0.0530
     15 C12         5.8484   -4.4409   -0.0740 C.ar      1 <0>         0.0344
     16 C13         5.1089   -3.2735   -0.0654 C.ar      1 <0>        -0.0480
     17 O1          7.1967   -4.6561   -0.0838 O.3       1 <0>        -0.3022
     18 C14         7.3695   -6.0281    0.3171 C.3       1 <0>         0.2120
     19 O2          6.1438   -6.6620   -0.0936 O.3       1 <0>        -0.3048
     20 C15         3.6460    2.2113   -0.0214 C.2       1 <0>         0.5572
     21 O3          4.7150    1.6315   -0.0347 O.2       1 <0>        -0.5105
     22 N3          3.6101    3.5586   -0.0142 N.am      1 <0>        -0.8551
     23 H2         -0.9622    1.8993    0.0260 H         1 <0>         0.1406
     24 H3          1.1319    3.1785    0.0080 H         1 <0>         0.1360
     25 H4         -0.9268   -0.5551    0.0079 H         1 <0>         0.1311
     26 H5          1.9924   -4.6217   -0.0521 H         1 <0>         0.1373
     27 H6          3.3151   -6.6918   -0.0759 H         1 <0>         0.1451
     28 H7          5.6093   -2.3164   -0.0652 H         1 <0>         0.1563
     29 H8          8.2215   -6.4729   -0.1970 H         1 <0>         0.1364
     30 H9          7.4936   -6.0985    1.3977 H         1 <0>         0.0892
     31 H10         2.7575    4.0210   -0.0036 H         1 <0>         0.3985
     32 H11         4.4370    4.0658   -0.0197 H         1 <0>         0.4056
@<TRIPOS>BOND
     1    1    6 ar
     2    1    2 ar
     3    1   23 1
     4    2    3 ar
     5    2   24 1
     6    3    4 ar
     7    3   20 1
     8    4   10 1
     9    4    5 ar
    10    5    6 ar
    11    5    7 1
    12    6   25 1
    13    7    8 1
    14    7    9 1
    15    9   10 2
    16    9   11 1
    17   11   16 ar
    18   11   12 ar
    19   12   13 ar
    20   12   26 1
    21   13   14 ar
    22   13   27 1
    23   14   19 1
    24   14   15 ar
    25   15   16 ar
    26   15   17 1
    27   16   28 1
    28   17   18 1
    29   18   19 1
    30   18   29 1
    31   18   30 1
    32   20   21 2
    33   20   22 am
    34   22   31 1
    35   22   32 1
@<TRIPOS>MOLECULE
CHEMBL521809
   54    58     0     0     0
SMALL
USER_CHARGES

@<TRIPOS>ATOM
      1 C1          1.7597    1.2903   -0.3567 C.ar      1 <0>        -0.0872
      2 C2          3.0682    1.6947   -0.5882 C.ar      1 <0>        -0.1104
      3 C3          4.0740    0.7663   -0.7441 C.ar      1 <0>        -0.0549
      4 C4          3.7694   -0.5921   -0.6673 C.ar      1 <0>        -0.1258
      5 C5          2.4365   -0.9995   -0.4311 C.ar      1 <0>        -0.0604
      6 C6          1.4380   -0.0358   -0.2775 C.ar      1 <0>        -0.0972
      7 C7          2.1458   -2.4314   -0.3559 C.2       1 <0>         0.1406
      8 N1          3.1031   -3.2978   -0.5046 N.2       1 <0>        -0.2218
      9 N2          4.4270   -2.9253   -0.7386 N.am      1 <0>        -0.5340
     10 H1          5.1006   -3.6157   -0.8417 H         1 <0>         0.4361
     11 C8          4.7955   -1.6301   -0.8252 C.2       1 <0>         0.5286
     12 O1          5.9575   -1.3279   -1.0305 O.2       1 <0>        -0.5212
     13 C9          0.7361   -2.9018   -0.1054 C.3       1 <0>        -0.0197
     14 C10         0.7074   -4.4081   -0.0739 C.ar      1 <0>        -0.0790
     15 C11         0.4969   -5.1193   -1.2422 C.ar      1 <0>        -0.0790
     16 C12         0.4695   -6.5022   -1.2220 C.ar      1 <0>        -0.1207
     17 C13         0.6517   -7.1816   -0.0350 C.ar      1 <0>        -0.0897
     18 C14         0.8645   -6.4705    1.1468 C.ar      1 <0>        -0.1282
     19 C15         0.8966   -5.0752    1.1185 C.ar      1 <0>        -0.0494
     20 C16         1.0600   -7.1920    2.4224 C.2       1 <0>         0.5640
     21 O2          0.5247   -6.7893    3.4367 O.2       1 <0>        -0.5304
     22 N3          1.8319   -8.2962    2.4606 N.am      1 <0>        -0.6090
     23 C17         2.5924   -8.7185    1.2761 C.3       1 <0>         0.0850
     24 C18         4.0710   -8.8464    1.6631 C.3       1 <0>         0.1132
     25 N4          4.1676   -9.6494    2.8901 N.pl3     1 <0>        -0.5847
     26 C19         3.4070   -9.2270    4.0746 C.3       1 <0>         0.1140
     27 C20         1.9328   -9.0960    3.6894 C.3       1 <0>         0.0981
     28 C21         4.9602  -10.7833    2.9294 C.ar      1 <0>         0.5657
     29 N5          5.6382  -11.1362    1.8471 N.ar      1 <0>        -0.5720
     30 C22         6.4052  -12.2139    1.8513 C.ar      1 <0>         0.1941
     31 C23         6.4941  -12.9760    3.0056 C.ar      1 <0>        -0.2936
     32 C24         5.7717  -12.5782    4.1196 C.ar      1 <0>         0.1946
     33 N6          5.0273  -11.4870    4.0500 N.ar      1 <0>        -0.5715
     34 H2          0.9864    2.0341   -0.2331 H         1 <0>         0.1369
     35 H3          3.2995    2.7480   -0.6469 H         1 <0>         0.1375
     36 H4          5.0892    1.0877   -0.9246 H         1 <0>         0.1434
     37 H5          0.4165   -0.3366   -0.0974 H         1 <0>         0.1422
     38 H6          0.3874   -2.5116    0.8507 H         1 <0>         0.1085
     39 H7          0.0861   -2.5426   -0.9033 H         1 <0>         0.1093
     40 H8          0.3530   -4.5922   -2.1738 H         1 <0>         0.1264
     41 H9          0.3048   -7.0513   -2.1373 H         1 <0>         0.1304
     42 H10         0.6294   -8.2613   -0.0204 H         1 <0>         0.1286
     43 H11         1.0652   -4.5192    2.0289 H         1 <0>         0.1287
     44 H12         2.2209   -9.6820    0.9273 H         1 <0>         0.0759
     45 H13         2.4838   -7.9743    0.4872 H         1 <0>         0.1091
     46 H14         4.6182   -9.3391    0.8594 H         1 <0>         0.1124
     47 H15         4.4898   -7.8557    1.8402 H         1 <0>         0.0711
     48 H16         3.5157   -9.9712    4.8636 H         1 <0>         0.1126
     49 H17         3.7785   -8.2635    4.4235 H         1 <0>         0.0710
     50 H18         1.3887   -8.6011    4.4938 H         1 <0>         0.1079
     51 H19         1.5133  -10.0871    3.5163 H         1 <0>         0.0739
     52 H20         6.9551  -12.4967    0.9659 H         1 <0>         0.1675
     53 H21         7.1127  -13.8608    3.0362 H         1 <0>         0.1445
     54 H22         5.8189  -13.1502    5.0344 H         1 <0>         0.1676
@<TRIPOS>BOND
     1    1    6 ar
     2    1    2 ar
     3    1   34 1
     4    2    3 ar
     5    2   35 1
     6    3    4 ar
     7    3   36 1
     8    4   11 1
     9    4    5 ar
    10    5    6 ar
    11    5    7 1
    12    6   37 1
    13    7    8 2
    14    7   13 1
    15    8    9 1
    16    9   10 1
    17    9   11 am
    18   11   12 2
    19   13   14 1
    20   13   38 1
    21   13   39 1
    22   14   19 ar
    23   14   15 ar
    24   15   16 ar
    25   15   40 1
    26   16   17 ar
    27   16   41 1
    28   17   18 ar
    29   17   42 1
    30   18   19 ar
    31   18   20 1
    32   19   43 1
    33   20   21 2
    34   20   22 am
    35   22   27 1
    36   22   23 1
    37   23   24 1
    38   23   44 1
    39   23   45 1
    40   24   25 1
    41   24   46 1
    42   24   47 1
    43   25   26 1
    44   25   28 1
    45   26   27 1
    46   26   48 1
    47   26   49 1
    48   27   50 1
    49   27   51 1
    50   28   33 ar
    51   28   29 ar
    52   29   30 ar
    53   30   31 ar
    54   30   52 1
    55   31   32 ar
    56   31   53 1
    57   32   33 ar
    58   32   54 1
@<TRIPOS>MOLECULE
CHEMBL523058
   56    60     0     0     0
SMALL
USER_CHARGES

@<TRIPOS>ATOM
      1 C1          0.0315    1.4106    0.2085 C.ar      1 <0>        -0.0865
      2 C2          1.2143    2.1383    0.2311 C.ar      1 <0>        -0.1076
      3 C3          2.4342    1.4984    0.2139 C.ar      1 <0>        -0.0531
      4 C4          2.4757    0.1053    0.1739 C.ar      1 <0>        -0.1242
      5 C5          1.2696   -0.6317    0.1515 C.ar      1 <0>        -0.0633
      6 C6          0.0482    0.0443    0.1692 C.ar      1 <0>        -0.0992
      7 C7          1.3433   -2.0922    0.1090 C.2       1 <0>         0.1336
      8 N1          2.5000   -2.6846    0.0932 N.2       1 <0>        -0.2230
      9 N2          3.7061   -1.9837    0.1146 N.am      1 <0>        -0.5334
     10 H1          4.5402   -2.4787    0.1012 H         1 <0>         0.4377
     11 C8          3.7431   -0.6354    0.1534 C.2       1 <0>         0.5279
     12 O1          4.8079   -0.0440    0.1711 O.2       1 <0>        -0.5141
     13 C9          0.0777   -2.9100    0.0842 C.3       1 <0>        -0.0163
     14 C10         0.4271   -4.3753    0.0418 C.ar      1 <0>        -0.0863
     15 C11         0.5937   -5.0099   -1.1774 C.ar      1 <0>        -0.0451
     16 C12         0.9143   -6.3533   -1.2271 C.ar      1 <0>        -0.1489
     17 C13         1.0713   -7.0732   -0.0564 C.ar      1 <0>         0.1506
     18 C14         0.9046   -6.4371    1.1776 C.ar      1 <0>        -0.1731
     19 C15         0.5854   -5.0780    1.2172 C.ar      1 <0>        -0.0491
     20 C16         1.0698   -7.1976    2.4328 C.2       1 <0>         0.5727
     21 O2          2.0887   -7.8307    2.6304 O.2       1 <0>        -0.5015
     22 N3          0.0910   -7.1897    3.3593 N.am      1 <0>        -0.6170
     23 C17        -1.1984   -6.5422    3.0797 C.3       1 <0>         0.0874
     24 C18        -2.3192   -7.5647    3.3045 C.3       1 <0>         0.0946
     25 N4         -2.1164   -8.2038    4.6122 N.pl3     1 <0>        -0.5889
     26 C19        -0.8270   -8.8513    4.8918 C.3       1 <0>         0.0851
     27 C20         0.2918   -7.8337    4.6650 C.3       1 <0>         0.0972
     28 C21        -3.1259   -8.1957    5.5677 C.ar      1 <0>         0.4446
     29 C22        -4.3802   -7.6896    5.2413 C.ar      1 <0>        -0.2005
     30 C23        -5.3754   -7.6876    6.2017 C.ar      1 <0>         0.0393
     31 C24        -5.0820   -8.1937    7.4613 C.ar      1 <0>        -0.1708
     32 C25        -3.8157   -8.6802    7.7163 C.ar      1 <0>         0.1483
     33 N5         -2.8869   -8.6746    6.7787 N.ar      1 <0>        -0.5075
     34 F1          1.3842   -8.3865   -0.1051 F         1 <0>        -0.1239
     35 H2         -0.9145    1.9313    0.2267 H         1 <0>         0.1376
     36 H3          1.1774    3.2172    0.2621 H         1 <0>         0.1394
     37 H4          3.3501    2.0706    0.2309 H         1 <0>         0.1451
     38 H5         -0.8789   -0.5094    0.1517 H         1 <0>         0.1406
     39 H6         -0.5071   -2.7016    0.9801 H         1 <0>         0.1079
     40 H7         -0.5057   -2.6499   -0.7991 H         1 <0>         0.1130
     41 H8          0.4722   -4.4523   -2.0944 H         1 <0>         0.1419
     42 H9          1.0420   -6.8421   -2.1817 H         1 <0>         0.1480
     43 H10         0.4589   -4.5795    2.1668 H         1 <0>         0.1352
     44 H11        -1.3357   -5.6951    3.7518 H         1 <0>         0.0862
     45 H12        -1.2185   -6.1987    2.0454 H         1 <0>         0.1186
     46 H13        -3.2844   -7.0585    3.2904 H         1 <0>         0.1157
     47 H14        -2.2880   -8.3201    2.5193 H         1 <0>         0.1023
     48 H15        -0.8069   -9.1948    5.9261 H         1 <0>         0.0901
     49 H16        -0.6897   -9.6984    4.2197 H         1 <0>         0.1083
     50 H17         1.2554   -8.3429    4.6774 H         1 <0>         0.1226
     51 H18         0.2629   -7.0807    5.4526 H         1 <0>         0.0819
     52 H19        -4.5739   -7.3032    4.2516 H         1 <0>         0.1793
     53 H20        -6.3584   -7.3008    5.9773 H         1 <0>         0.1750
     54 H21        -5.8368   -8.2062    8.2335 H         1 <0>         0.1810
     55 H22        -3.5832   -9.0744    8.6945 H         1 <0>         0.2065
     56 H23        -2.0063   -9.0261    6.9831 H         1 <0>         0.4380
@<TRIPOS>BOND
     1    1    6 ar
     2    1    2 ar
     3    1   35 1
     4    2    3 ar
     5    2   36 1
     6    3    4 ar
     7    3   37 1
     8    4   11 1
     9    4    5 ar
    10    5    6 ar
    11    5    7 1
    12    6   38 1
    13    7    8 2
    14    7   13 1
    15    8    9 1
    16    9   10 1
    17    9   11 am
    18   11   12 2
    19   13   14 1
    20   13   39 1
    21   13   40 1
    22   14   19 ar
    23   14   15 ar
    24   15   16 ar
    25   15   41 1
    26   16   17 ar
    27   16   42 1
    28   17   18 ar
    29   17   34 1
    30   18   19 ar
    31   18   20 1
    32   19   43 1
    33   20   21 2
    34   20   22 am
    35   22   27 1
    36   22   23 1
    37   23   24 1
    38   23   44 1
    39   23   45 1
    40   24   25 1
    41   24   46 1
    42   24   47 1
    43   25   26 1
    44   25   28 1
    45   26   27 1
    46   26   48 1
    47   26   49 1
    48   27   50 1
    49   27   51 1
    50   28   33 ar
    51   28   29 ar
    52   29   30 ar
    53   29   52 1
    54   30   31 ar
    55   30   53 1
    56   31   32 ar
    57   31   54 1
    58   32   33 ar
    59   32   55 1
    60   33   56 1
@<TRIPOS>MOLECULE
CHEMBL523058__1
   55    59     0     0     0
SMALL
USER_CHARGES

@<TRIPOS>ATOM
      1 C1         -0.0250    1.3923    0.1349 C.ar      1 <0>        -0.0872
      2 C2          1.1539    2.1267    0.1504 C.ar      1 <0>        -0.1102
      3 C3          2.3773    1.4935    0.1369 C.ar      1 <0>        -0.0543
      4 C4          2.4264    0.1004    0.1079 C.ar      1 <0>        -0.1251
      5 C5          1.2244   -0.6435    0.0926 C.ar      1 <0>        -0.0603
      6 C6         -0.0008    0.0259    0.1064 C.ar      1 <0>        -0.0978
      7 C7          1.3061   -2.1038    0.0616 C.2       1 <0>         0.1356
      8 N1          2.4661   -2.6900    0.0491 N.2       1 <0>        -0.2202
      9 N2          3.6683   -1.9822    0.0637 N.am      1 <0>        -0.5330
     10 H1          4.5050   -2.4727    0.0533 H         1 <0>         0.4374
     11 C8          3.6978   -0.6334    0.0918 C.2       1 <0>         0.5283
     12 O1          4.7593   -0.0361    0.1036 O.2       1 <0>        -0.5194
     13 C9          0.0450   -2.9287    0.0447 C.3       1 <0>        -0.0163
     14 C10         0.4025   -4.3924    0.0135 C.ar      1 <0>        -0.0907
     15 C11         0.5713   -5.0357   -1.2009 C.ar      1 <0>        -0.0517
     16 C12         0.8992   -6.3777   -1.2403 C.ar      1 <0>        -0.1524
     17 C13         1.0615   -7.0874   -0.0642 C.ar      1 <0>         0.1486
     18 C14         0.8926   -6.4425    1.1649 C.ar      1 <0>        -0.1617
     19 C15         0.5660   -5.0849    1.1942 C.ar      1 <0>        -0.0464
     20 C16         1.0634   -7.1921    2.4260 C.2       1 <0>         0.5653
     21 O2          2.0868   -7.8162    2.6283 O.2       1 <0>        -0.5173
     22 N3          0.0846   -7.1842    3.3525 N.am      1 <0>        -0.6067
     23 C17        -1.2088   -6.5466    3.0687 C.3       1 <0>         0.0890
     24 C18        -2.3232   -7.5746    3.3003 C.3       1 <0>         0.1094
     25 N4         -2.1164   -8.2038    4.6122 N.pl3     1 <0>        -0.6111
     26 C19        -0.8230   -8.8414    4.8960 C.3       1 <0>         0.1127
     27 C20         0.2894   -7.8183    4.6624 C.3       1 <0>         0.0978
     28 C21        -3.1259   -8.1957    5.5677 C.ar      1 <0>         0.4047
     29 C22        -4.4065   -7.7819    5.2143 C.ar      1 <0>        -0.2411
     30 C23        -5.4013   -7.7788    6.1750 C.ar      1 <0>        -0.0321
     31 C24        -5.0812   -8.1911    7.4620 C.ar      1 <0>        -0.2341
     32 C25        -3.7898   -8.5890    7.7429 C.ar      1 <0>         0.1499
     33 N5         -2.8616   -8.5869    6.8047 N.ar      1 <0>        -0.5432
     34 F1          1.3816   -8.3993   -0.1029 F         1 <0>        -0.1244
     35 H2         -0.9738    1.9079    0.1500 H         1 <0>         0.1368
     36 H3          1.1109    3.2057    0.1729 H         1 <0>         0.1377
     37 H4          3.2899    2.0708    0.1484 H         1 <0>         0.1436
     38 H5         -0.9248   -0.5331    0.0942 H         1 <0>         0.1420
     39 H6         -0.5400   -2.7166    0.9396 H         1 <0>         0.1090
     40 H7         -0.5407   -2.6789   -0.8400 H         1 <0>         0.1115
     41 H8          0.4458   -4.4861   -2.1221 H         1 <0>         0.1380
     42 H9          1.0287   -6.8733   -2.1911 H         1 <0>         0.1444
     43 H10         0.4377   -4.5796    2.1400 H         1 <0>         0.1355
     44 H11        -1.3514   -5.6961    3.7352 H         1 <0>         0.0780
     45 H12        -1.2312   -6.2101    2.0322 H         1 <0>         0.1009
     46 H13        -3.2916   -7.0745    3.2830 H         1 <0>         0.0991
     47 H14        -2.2874   -8.3350    2.5202 H         1 <0>         0.0734
     48 H15        -0.8006   -9.1779    5.9325 H         1 <0>         0.1105
     49 H16        -0.6804   -9.6920    4.2295 H         1 <0>         0.0663
     50 H17         1.2562   -8.3214    4.6781 H         1 <0>         0.1051
     51 H18         0.2559   -7.0603    5.4450 H         1 <0>         0.0752
     52 H19        -4.6205   -7.4671    4.2037 H         1 <0>         0.1315
     53 H20        -6.4045   -7.4625    5.9300 H         1 <0>         0.1326
     54 H21        -5.8351   -8.2001    8.2353 H         1 <0>         0.1315
     55 H22        -3.5365   -8.9101    8.7425 H         1 <0>         0.1555
@<TRIPOS>BOND
     1    1    6 ar
     2    1    2 ar
     3    1   35 1
     4    2    3 ar
     5    2   36 1
     6    3    4 ar
     7    3   37 1
     8    4   11 1
     9    4    5 ar
    10    5    6 ar
    11    5    7 1
    12    6   38 1
    13    7    8 2
    14    7   13 1
    15    8    9 1
    16    9   10 1
    17    9   11 am
    18   11   12 2
    19   13   14 1
    20   13   39 1
    21   13   40 1
    22   14   19 ar
    23   14   15 ar
    24   15   16 ar
    25   15   41 1
    26   16   17 ar
    27   16   42 1
    28   17   18 ar
    29   17   34 1
    30   18   19 ar
    31   18   20 1
    32   19   43 1
    33   20   21 2
    34   20   22 am
    35   22   27 1
    36   22   23 1
    37   23   24 1
    38   23   44 1
    39   23   45 1
    40   24   25 1
    41   24   46 1
    42   24   47 1
    43   25   26 1
    44   25   28 1
    45   26   27 1
    46   26   48 1
    47   26   49 1
    48   27   50 1
    49   27   51 1
    50   28   33 ar
    51   28   29 ar
    52   29   30 ar
    53   29   52 1
    54   30   31 ar
    55   30   53 1
    56   31   32 ar
    57   31   54 1
    58   32   33 ar
    59   32   55 1
@<TRIPOS>MOLECULE
CHEMBL578804
   39    42     0     0     0
SMALL
USER_CHARGES

@<TRIPOS>ATOM
      1 C1         -0.0178    1.4608    0.0101 C.3       1 <0>         0.0993
      2 N1          0.0021   -0.0041    0.0020 N.pl3     1 <0>        -0.3716
      3 C2          0.0078   -0.7905   -1.0960 C.2       1 <0>         0.0562
      4 C3          0.0276   -2.0776   -0.6873 C.2       1 <0>        -0.2558
      5 C4          0.0344   -2.0832    0.7217 C.2       1 <0>         0.1044
      6 N2          0.0245   -0.8319    1.1317 N.2       1 <0>        -0.2827
      7 C5          0.0552   -3.2857    1.5894 C.ar      1 <0>         0.0071
      8 C6          0.0761   -4.5577    1.0173 C.ar      1 <0>        -0.0948
      9 C7          0.0959   -5.6746    1.8219 C.ar      1 <0>        -0.0628
     10 C8          0.0951   -5.5338    3.2117 C.ar      1 <0>        -0.0295
     11 C9          0.0742   -4.2594    3.7836 C.ar      1 <0>        -0.1001
     12 C10         0.0598   -3.1438    2.9771 C.ar      1 <0>        -0.0926
     13 C11         0.1159   -6.7317    4.0762 C.2       1 <0>         0.3319
     14 N3          0.1117   -6.7162    5.4438 N.pl3     1 <0>        -0.5933
     15 H1          0.0949   -5.9299    6.0116 H         1 <0>         0.4254
     16 C12         0.1355   -8.0328    5.8637 C.ar      1 <0>         0.0397
     17 C13         0.1432   -8.6437    7.1088 C.ar      1 <0>        -0.0789
     18 C14         0.1692  -10.0217    7.2068 C.ar      1 <0>        -0.1135
     19 C15         0.1879  -10.8094    6.0707 C.ar      1 <0>        -0.0854
     20 C16         0.1803  -10.2231    4.8074 C.ar      1 <0>        -0.0908
     21 C17         0.1538   -8.8153    4.6956 C.ar      1 <0>         0.1066
     22 N4          0.1355   -7.9727    3.6480 N.2       1 <0>        -0.4536
     23 C18         0.1998  -11.0642    3.5978 C.2       1 <0>         0.5577
     24 O1          0.1931  -10.5468    2.4972 O.2       1 <0>        -0.5108
     25 N5          0.2251  -12.4070    3.7111 N.am      1 <0>        -0.8555
     26 H2          1.0048    1.8381    0.0023 H         1 <0>         0.0770
     27 H3         -0.5450    1.8219   -0.8730 H         1 <0>         0.0902
     28 H4         -0.5280    1.8123    0.9069 H         1 <0>         0.0904
     29 H5         -0.0021   -0.4499   -2.1208 H         1 <0>         0.1781
     30 H6          0.0364   -2.9478   -1.3268 H         1 <0>         0.1529
     31 H7          0.0763   -4.6664   -0.0572 H         1 <0>         0.1379
     32 H8          0.1117   -6.6594    1.3788 H         1 <0>         0.1479
     33 H9          0.0736   -4.1494    4.8579 H         1 <0>         0.1237
     34 H10         0.0482   -2.1584    3.4190 H         1 <0>         0.1360
     35 H11         0.1292   -8.0405    8.0045 H         1 <0>         0.1301
     36 H12         0.1753  -10.4883    8.1808 H         1 <0>         0.1398
     37 H13         0.2089  -11.8852    6.1633 H         1 <0>         0.1354
     38 H14         0.2305  -12.8196    4.5889 H         1 <0>         0.3984
     39 H15         0.2379  -12.9607    2.9147 H         1 <0>         0.4053
@<TRIPOS>BOND
     1    1    2 1
     2    1   26 1
     3    1   27 1
     4    1   28 1
     5    2    6 1
     6    2    3 1
     7    3    4 2
     8    3   29 1
     9    4    5 1
    10    4   30 1
    11    5    6 2
    12    5    7 1
    13    7   12 ar
    14    7    8 ar
    15    8    9 ar
    16    8   31 1
    17    9   10 ar
    18    9   32 1
    19   10   11 ar
    20   10   13 1
    21   11   12 ar
    22   11   33 1
    23   12   34 1
    24   13   22 2
    25   13   14 1
    26   14   15 1
    27   14   16 1
    28   16   21 ar
    29   16   17 ar
    30   17   18 ar
    31   17   35 1
    32   18   19 ar
    33   18   36 1
    34   19   20 ar
    35   19   37 1
    36   20   21 ar
    37   20   23 1
    38   21   22 1
    39   23   24 2
    40   23   25 am
    41   25   38 1
    42   25   39 1
@<TRIPOS>MOLECULE
CHEMBL339695
   18    19     0     0     0
SMALL
USER_CHARGES

@<TRIPOS>ATOM
      1 C1         -0.0165    1.3630    0.0095 C.ar      1 <0>        -0.0809
      2 C2          1.1657    2.0923    0.0022 C.ar      1 <0>        -0.1382
      3 C3          2.3792    1.4621   -0.0128 C.ar      1 <0>        -0.0486
      4 C4          2.4292    0.0683   -0.0207 C.ar      1 <0>        -0.1575
      5 C5          1.2261   -0.6746   -0.0132 C.ar      1 <0>         0.0039
      6 C6          0.0021   -0.0041    0.0020 C.ar      1 <0>        -0.1265
      7 C7          1.3111   -2.1358   -0.0223 C.2       1 <0>        -0.2042
      8 C8          2.5172   -2.7263   -0.0374 C.2       1 <0>         0.1110
      9 N1          3.6813   -2.0128   -0.0442 N.am      1 <0>        -0.6339
     10 C9          3.6995   -0.6651   -0.0372 C.2       1 <0>         0.5458
     11 O1          4.7583   -0.0633   -0.0436 O.2       1 <0>        -0.5271
     12 H1         -0.9630    1.8829    0.0259 H         1 <0>         0.1295
     13 H2          1.1259    3.1715    0.0079 H         1 <0>         0.1306
     14 H3          3.2920    2.0393   -0.0187 H         1 <0>         0.1368
     15 H4         -0.9233   -0.5608    0.0082 H         1 <0>         0.1336
     16 H5          0.4118   -2.7338   -0.0166 H         1 <0>         0.1489
     17 H6          2.5681   -3.8051   -0.0440 H         1 <0>         0.1613
     18 H7          4.5244   -2.4924   -0.0545 H         1 <0>         0.4156
@<TRIPOS>BOND
     1    1    6 ar
     2    1    2 ar
     3    1   12 1
     4    2    3 ar
     5    2   13 1
     6    3    4 ar
     7    3   14 1
     8    4   10 1
     9    4    5 ar
    10    5    6 ar
    11    5    7 1
    12    6   15 1
    13    7    8 2
    14    7   16 1
    15    8    9 1
    16    8   17 1
    17    9   10 am
    18    9   18 1
    19   10   11 2
@<TRIPOS>MOLECULE
CHEMBL418813
   47    50     0     0     0
SMALL
USER_CHARGES

@<TRIPOS>ATOM
      1 C1          0.1655    1.7869   -0.2508 C.3       1 <0>        -0.0520
      2 N1          0.2296    0.3350   -0.0367 N.4       1 <0>        -0.3862
      3 C2         -1.1237   -0.1854    0.1993 C.3       1 <0>        -0.0521
      4 C3          0.8020   -0.3104   -1.2257 C.3       1 <0>         0.0251
      5 C4          0.8671   -1.8231   -1.0031 C.3       1 <0>        -0.1598
      6 C5          1.4322   -2.4961   -2.2579 C.3       1 <0>         0.1302
      7 N2          2.7244   -1.8780   -2.5848 N.pl3     1 <0>        -0.6183
      8 C6          2.7921   -0.4177   -2.7316 C.3       1 <0>         0.1317
      9 C7          2.2118    0.2319   -1.4714 C.3       1 <0>        -0.1587
     10 C8          3.8623   -2.6606   -2.7516 C.ar      1 <0>         0.3818
     11 C9          3.7374   -4.0475   -2.8331 C.ar      1 <0>        -0.1875
     12 C10         4.8672   -4.8223   -2.9987 C.ar      1 <0>        -0.0685
     13 C11         6.1077   -4.1858   -3.0796 C.ar      1 <0>         0.0882
     14 C12         6.1594   -2.7891   -2.9901 C.ar      1 <0>         0.1684
     15 N3          5.0452   -2.0800   -2.8361 N.ar      1 <0>        -0.4986
     16 C13         7.4703   -2.1157   -3.0755 C.ar      1 <0>        -0.0107
     17 C14         7.5864   -0.7322   -2.9928 C.ar      1 <0>        -0.0903
     18 C15         8.8326   -0.1458   -3.0771 C.ar      1 <0>        -0.0905
     19 C16         9.9687   -0.9237   -3.2439 C.ar      1 <0>        -0.1140
     20 C17         9.8739   -2.2965   -3.3284 C.ar      1 <0>        -0.0519
     21 C18         8.6239   -2.9080   -3.2445 C.ar      1 <0>        -0.1262
     22 C19         8.4781   -4.3690   -3.3291 C.2       1 <0>         0.5552
     23 N4          7.2607   -4.9354   -3.2453 N.am      1 <0>        -0.6362
     24 O1          9.4630   -5.0687   -3.4750 O.2       1 <0>        -0.5108
     25 H1          1.1696    2.1731   -0.4259 H         1 <0>         0.1252
     26 H2         -0.4616    1.9992   -1.1167 H         1 <0>         0.1228
     27 H3         -0.2592    2.2659    0.6314 H         1 <0>         0.1253
     28 H4         -1.7507    0.0268   -0.6666 H         1 <0>         0.1228
     29 H5         -1.0761   -1.2627    0.3582 H         1 <0>         0.1245
     30 H6         -1.5484    0.2936    1.0816 H         1 <0>         0.1253
     31 H7          0.1751   -0.0977   -2.0916 H         1 <0>         0.1386
     32 H8          1.5139   -2.0382   -0.1524 H         1 <0>         0.0920
     33 H9         -0.1343   -2.2052   -0.8050 H         1 <0>         0.1013
     34 H10         1.5733   -3.5604   -2.0697 H         1 <0>         0.1039
     35 H11         0.7406   -2.3585   -3.0892 H         1 <0>         0.0800
     36 H12         3.8305   -0.1107   -2.8559 H         1 <0>         0.1144
     37 H13         2.2115   -0.1106   -3.6014 H         1 <0>         0.0725
     38 H14         2.1674    1.3126   -1.6067 H         1 <0>         0.0992
     39 H15         2.8459   -0.0024   -0.6163 H         1 <0>         0.0913
     40 H16         2.7642   -4.5112   -2.7668 H         1 <0>         0.1432
     41 H17         4.7938   -5.8978   -3.0639 H         1 <0>         0.1498
     42 H18         6.7060   -0.1202   -2.8637 H         1 <0>         0.1387
     43 H19         8.9241    0.9284   -3.0131 H         1 <0>         0.1351
     44 H20        10.9368   -0.4495   -3.3085 H         1 <0>         0.1383
     45 H21        10.7633   -2.8951   -3.4590 H         1 <0>         0.1452
     46 H22         7.1879   -5.9009   -3.3033 H         1 <0>         0.4175
     47 H23         0.8101    0.1386    0.7649 H         1 <0>         0.4249
@<TRIPOS>BOND
     1    1    2 1
     2    1   25 1
     3    1   26 1
     4    1   27 1
     5    2    3 1
     6    2    4 1
     7    2   47 1
     8    3   28 1
     9    3   29 1
    10    3   30 1
    11    4    9 1
    12    4    5 1
    13    4   31 1
    14    5    6 1
    15    5   32 1
    16    5   33 1
    17    6    7 1
    18    6   34 1
    19    6   35 1
    20    7    8 1
    21    7   10 1
    22    8    9 1
    23    8   36 1
    24    8   37 1
    25    9   38 1
    26    9   39 1
    27   10   15 ar
    28   10   11 ar
    29   11   12 ar
    30   11   40 1
    31   12   13 ar
    32   12   41 1
    33   13   23 1
    34   13   14 ar
    35   14   15 ar
    36   14   16 1
    37   16   21 ar
    38   16   17 ar
    39   17   18 ar
    40   17   42 1
    41   18   19 ar
    42   18   43 1
    43   19   20 ar
    44   19   44 1
    45   20   21 ar
    46   20   45 1
    47   21   22 1
    48   22   23 am
    49   22   24 2
    50   23   46 1
@<TRIPOS>MOLECULE
CHEMBL453059
   45    48     0     0     0
SMALL
USER_CHARGES

@<TRIPOS>ATOM
      1 C1         -0.0167    1.3769    0.0096 C.ar      1 <0>        -0.0955
      2 C2          1.1632    2.0980    0.0022 C.ar      1 <0>        -0.0818
      3 C3          2.3901    1.4397   -0.0135 C.ar      1 <0>        -0.0802
      4 C4          2.4203    0.0291   -0.0214 C.ar      1 <0>         0.0952
      5 C5          1.2109   -0.6850   -0.0132 C.ar      1 <0>         0.0484
      6 C6          0.0021   -0.0041    0.0020 C.ar      1 <0>        -0.0855
      7 N1          1.5594   -2.0218   -0.0239 N.pl3     1 <0>        -0.5970
      8 H1          0.9495   -2.7761   -0.0221 H         1 <0>         0.4200
      9 C7          2.9166   -2.0818   -0.0377 C.2       1 <0>         0.2529
     10 N2          3.4163   -0.8785   -0.0362 N.2       1 <0>        -0.4347
     11 C8          3.7253   -3.3533   -0.0521 C.3       1 <0>        -0.0191
     12 C9          2.9542   -4.4713   -0.7906 C.3       1 <0>        -0.1437
     13 C10         3.2654   -5.7277    0.0610 C.3       1 <0>        -0.0031
     14 N3          3.2669   -5.2042    1.4510 N.4       1 <0>        -0.3933
     15 C11         3.9203   -3.8791    1.3821 C.3       1 <0>        -0.0030
     16 C12         4.0308   -6.1005    2.3291 C.3       1 <0>         0.0243
     17 C13         3.3381   -7.4765    2.4112 C.3       1 <0>        -0.1406
     18 C14         3.5438   -7.9181    3.8815 C.3       1 <0>        -0.1250
     19 C15         3.3843   -6.5902    4.6627 C.3       1 <0>        -0.1305
     20 C16         4.0602   -5.5370    3.7606 C.3       1 <0>        -0.1447
     21 C17         3.6468    2.2101   -0.0224 C.2       1 <0>         0.5568
     22 O1          4.7155    1.6299   -0.0361 O.2       1 <0>        -0.5137
     23 N4          3.6115    3.5573   -0.0152 N.am      1 <0>        -0.8507
     24 H2         -0.9621    1.8987    0.0260 H         1 <0>         0.1465
     25 H3          1.1329    3.1775    0.0083 H         1 <0>         0.1417
     26 H4         -0.9266   -0.5554    0.0083 H         1 <0>         0.1336
     27 H5          4.6914   -3.1811   -0.5265 H         1 <0>         0.1502
     28 H6          1.8842   -4.2638   -0.7950 H         1 <0>         0.0923
     29 H7          3.3290   -4.5918   -1.8070 H         1 <0>         0.1320
     30 H8          2.4876   -6.4807   -0.0656 H         1 <0>         0.1409
     31 H9          4.2427   -6.1353   -0.1976 H         1 <0>         0.1426
     32 H10         4.9837   -3.9776    1.6002 H         1 <0>         0.1481
     33 H11         3.4541   -3.1978    2.0939 H         1 <0>         0.1342
     34 H12         5.0471   -6.2153    1.9520 H         1 <0>         0.1430
     35 H13         2.2757   -7.3828    2.1861 H         1 <0>         0.0850
     36 H14         3.8123   -8.1836    1.7306 H         1 <0>         0.0987
     37 H15         2.7796   -8.6359    4.1797 H         1 <0>         0.0883
     38 H16         4.5416   -8.3329    4.0243 H         1 <0>         0.0842
     39 H17         2.3294   -6.3534    4.8012 H         1 <0>         0.0762
     40 H18         3.8923   -6.6505    5.6253 H         1 <0>         0.0877
     41 H19         5.0908   -5.3791    4.0786 H         1 <0>         0.1038
     42 H20         3.5077   -4.5985    3.8039 H         1 <0>         0.0825
     43 H21         2.7590    4.0201   -0.0042 H         1 <0>         0.4007
     44 H22         4.4385    4.0642   -0.0210 H         1 <0>         0.4095
     45 H23         2.3206   -5.1084    1.7878 H         1 <0>         0.4224
@<TRIPOS>BOND
     1    1    6 ar
     2    1    2 ar
     3    1   24 1
     4    2    3 ar
     5    2   25 1
     6    3    4 ar
     7    3   21 1
     8    4   10 1
     9    4    5 ar
    10    5    6 ar
    11    5    7 1
    12    6   26 1
    13    7    8 1
    14    7    9 1
    15    9   10 2
    16    9   11 1
    17   11   15 1
    18   11   12 1
    19   11   27 1
    20   12   13 1
    21   12   28 1
    22   12   29 1
    23   13   14 1
    24   13   30 1
    25   13   31 1
    26   14   15 1
    27   14   16 1
    28   14   45 1
    29   15   32 1
    30   15   33 1
    31   16   20 1
    32   16   17 1
    33   16   34 1
    34   17   18 1
    35   17   35 1
    36   17   36 1
    37   18   19 1
    38   18   37 1
    39   18   38 1
    40   19   20 1
    41   19   39 1
    42   19   40 1
    43   20   41 1
    44   20   42 1
    45   21   22 2
    46   21   23 am
    47   23   43 1
    48   23   44 1
@<TRIPOS>MOLECULE
CHEMBL453059__1
   45    48     0     0     0
SMALL
USER_CHARGES

@<TRIPOS>ATOM
      1 C1         -0.0167    1.3769    0.0096 C.ar      1 <0>        -0.0960
      2 C2          1.1632    2.0980    0.0022 C.ar      1 <0>        -0.0816
      3 C3          2.3901    1.4397   -0.0135 C.ar      1 <0>        -0.0810
      4 C4          2.4203    0.0291   -0.0214 C.ar      1 <0>         0.0955
      5 C5          1.2109   -0.6850   -0.0132 C.ar      1 <0>         0.0491
      6 C6          0.0021   -0.0041    0.0020 C.ar      1 <0>        -0.0845
      7 N1          1.5594   -2.0218   -0.0239 N.pl3     1 <0>        -0.5935
      8 H1          0.9495   -2.7761   -0.0221 H         1 <0>         0.4224
      9 C7          2.9166   -2.0818   -0.0377 C.2       1 <0>         0.2615
     10 N2          3.4163   -0.8785   -0.0362 N.2       1 <0>        -0.4365
     11 C8          3.7253   -3.3533   -0.0521 C.3       1 <0>        -0.0212
     12 C9          2.9536   -4.5004    0.6399 C.3       1 <0>        -0.1434
     13 C10         3.2348   -5.7486   -0.2171 C.3       1 <0>        -0.0061
     14 N3          4.1391   -5.3298   -1.3099 N.4       1 <0>        -0.3906
     15 C11         3.8986   -3.8765   -1.5001 C.3       1 <0>         0.0014
     16 C12         3.8175   -6.0620   -2.5422 C.3       1 <0>         0.0248
     17 C13         4.0836   -7.5689   -2.3462 C.3       1 <0>        -0.1406
     18 C14         4.6458   -8.0361   -3.7117 C.3       1 <0>        -0.1251
     19 C15         5.5292   -6.8399   -4.1450 C.3       1 <0>        -0.1305
     20 C16         4.7367   -5.5985   -3.6858 C.3       1 <0>        -0.1449
     21 C17         3.6468    2.2101   -0.0224 C.2       1 <0>         0.5574
     22 O1          4.7155    1.6299   -0.0361 O.2       1 <0>        -0.5148
     23 N4          3.6115    3.5573   -0.0152 N.am      1 <0>        -0.8508
     24 H2         -0.9621    1.8987    0.0260 H         1 <0>         0.1465
     25 H3          1.1329    3.1775    0.0083 H         1 <0>         0.1416
     26 H4         -0.9266   -0.5554    0.0083 H         1 <0>         0.1341
     27 H5          4.6952   -3.1973    0.4203 H         1 <0>         0.1437
     28 H6          3.3235   -4.6470    1.6546 H         1 <0>         0.1207
     29 H7          1.8855   -4.2835    0.6534 H         1 <0>         0.0981
     30 H8          3.7162   -6.5151    0.3901 H         1 <0>         0.1395
     31 H9          2.3026   -6.1314   -0.6326 H         1 <0>         0.1336
     32 H10         2.9913   -3.7095   -2.0807 H         1 <0>         0.1348
     33 H11         4.7559   -3.4042   -1.9798 H         1 <0>         0.1489
     34 H12         2.7742   -5.8983   -2.8119 H         1 <0>         0.1384
     35 H13         4.8184   -7.7271   -1.5568 H         1 <0>         0.0876
     36 H14         3.1561   -8.0932   -2.1159 H         1 <0>         0.0970
     37 H15         5.2471   -8.9376   -3.5938 H         1 <0>         0.0889
     38 H16         3.8390   -8.1993   -4.4262 H         1 <0>         0.0829
     39 H17         6.4975   -6.8803   -3.6461 H         1 <0>         0.0784
     40 H18         5.6567   -6.8322   -5.2274 H         1 <0>         0.0874
     41 H19         4.1394   -5.2106   -4.5110 H         1 <0>         0.1019
     42 H20         5.4214   -4.8303   -3.3266 H         1 <0>         0.0858
     43 H21         2.7590    4.0201   -0.0042 H         1 <0>         0.4008
     44 H22         4.4385    4.0642   -0.0210 H         1 <0>         0.4093
     45 H23         5.0999   -5.4921   -1.0479 H         1 <0>         0.4290
@<TRIPOS>BOND
     1    1    6 ar
     2    1    2 ar
     3    1   24 1
     4    2    3 ar
     5    2   25 1
     6    3    4 ar
     7    3   21 1
     8    4   10 1
     9    4    5 ar
    10    5    6 ar
    11    5    7 1
    12    6   26 1
    13    7    8 1
    14    7    9 1
    15    9   10 2
    16    9   11 1
    17   11   15 1
    18   11   12 1
    19   11   27 1
    20   12   13 1
    21   12   28 1
    22   12   29 1
    23   13   14 1
    24   13   30 1
    25   13   31 1
    26   14   15 1
    27   14   16 1
    28   14   45 1
    29   15   32 1
    30   15   33 1
    31   16   20 1
    32   16   17 1
    33   16   34 1
    34   17   18 1
    35   17   35 1
    36   17   36 1
    37   18   19 1
    38   18   37 1
    39   18   38 1
    40   19   20 1
    41   19   39 1
    42   19   40 1
    43   20   41 1
    44   20   42 1
    45   21   22 2
    46   21   23 am
    47   23   43 1
    48   23   44 1
@<TRIPOS>MOLECULE
CHEMBL189695
   58    62     0     0     0
SMALL
USER_CHARGES

@<TRIPOS>ATOM
      1 C1         -0.0165    1.3623    0.0095 C.ar      1 <0>        -0.0807
      2 C2          1.1656    2.0925    0.0022 C.ar      1 <0>        -0.1266
      3 C3          2.3870    1.4553   -0.0129 C.ar      1 <0>        -0.0475
      4 C4          2.4318    0.0617   -0.0208 C.ar      1 <0>        -0.1414
      5 C5          1.2259   -0.6784   -0.0132 C.ar      1 <0>         0.0156
      6 C6          0.0021   -0.0041    0.0020 C.ar      1 <0>        -0.1162
      7 C7          1.3033   -2.1362   -0.0212 C.2       1 <0>        -0.1289
      8 C8          2.5106   -2.7535   -0.0355 C.2       1 <0>         0.1446
      9 N1          3.6827   -2.0213   -0.0433 N.am      1 <0>        -0.6229
     10 C9          3.6985   -0.6769   -0.0363 C.2       1 <0>         0.5566
     11 O1          4.7580   -0.0764   -0.0432 O.2       1 <0>        -0.5188
     12 C10         2.3211   -4.2235   -0.0405 C.ar      1 <0>         0.0151
     13 C11         3.2473   -5.2702   -0.0537 C.ar      1 <0>        -0.1475
     14 C12         2.8050   -6.5787   -0.0552 C.ar      1 <0>         0.1966
     15 C13         1.4473   -6.8574   -0.0436 C.ar      1 <0>        -0.7059
     16 C14         0.5262   -5.8244   -0.0306 C.ar      1 <0>         0.0334
     17 C15         0.9585   -4.5168   -0.0290 C.ar      1 <0>        -0.1065
     18 C16         0.2286   -3.1969   -0.0160 C.3       1 <0>        -0.0324
     19 S1          0.8929   -8.5299   -0.0462 S.o2      1 <0>         2.6988
     20 O2          1.6252   -9.2020    0.9693 O.2       1 <0>        -0.9382
     21 O3         -0.5273   -8.4870   -0.0597 O.2       1 <0>        -0.9480
     22 N2          1.3599   -9.1983   -1.4876 N.pl3     1 <0>        -1.1120
     23 C17         2.7836   -9.3583   -1.7937 C.3       1 <0>         0.1151
     24 C18         2.9465  -10.3148   -2.9767 C.3       1 <0>        -0.1252
     25 C19         4.4334  -10.4819   -3.2964 C.3       1 <0>         0.0715
     26 N3          4.5898  -11.4002   -4.4323 N.3       1 <0>        -0.5312
     27 N4          5.9934  -11.5832   -4.7649 N.3       1 <0>        -0.3764
     28 C20         6.2854  -11.0771   -6.1140 C.3       1 <0>        -0.0089
     29 C21         7.7813  -11.2345   -6.3995 C.3       1 <0>         0.0679
     30 O4          8.1491  -12.6078   -6.2450 O.3       1 <0>        -0.3836
     31 C22         7.8791  -13.1332   -4.9426 C.3       1 <0>         0.0620
     32 C23         6.3842  -12.9951   -4.6423 C.3       1 <0>         0.0301
     33 F1          3.6994   -7.5912   -0.0683 F         1 <0>        -0.1152
     34 H1         -0.9631    1.8819    0.0259 H         1 <0>         0.1338
     35 H2          1.1265    3.1717    0.0079 H         1 <0>         0.1352
     36 H3          3.3013    2.0299   -0.0189 H         1 <0>         0.1421
     37 H4         -0.9240   -0.5597    0.0075 H         1 <0>         0.1368
     38 H5          4.3059   -5.0564   -0.0631 H         1 <0>         0.1488
     39 H6         -0.5313   -6.0438   -0.0220 H         1 <0>         0.1640
     40 H7         -0.3799   -3.1119    0.8844 H         1 <0>         0.1188
     41 H8         -0.3967   -3.1036   -0.9040 H         1 <0>         0.1184
     42 H9          0.6908   -9.4839   -2.1291 H         1 <0>         0.4225
     43 H10         3.2116   -8.3888   -2.0487 H         1 <0>         0.0658
     44 H11         3.2988   -9.7654   -0.9237 H         1 <0>         0.0898
     45 H12         2.5186  -11.2843   -2.7217 H         1 <0>         0.0850
     46 H13         2.4313   -9.9077   -3.8467 H         1 <0>         0.0701
     47 H14         4.8614   -9.5124   -3.5514 H         1 <0>         0.0390
     48 H15         4.9486  -10.8890   -2.4264 H         1 <0>         0.0840
     49 H16         4.0676  -11.0773   -5.2329 H         1 <0>         0.3329
     50 H17         5.7131  -11.6451   -6.8475 H         1 <0>         0.0520
     51 H18         6.0121  -10.0237   -6.1746 H         1 <0>         0.0846
     52 H19         7.9929  -10.9135   -7.4194 H         1 <0>         0.1018
     53 H20         8.3516  -10.6240   -5.6994 H         1 <0>         0.0616
     54 H21         8.1614  -14.1855   -4.9088 H         1 <0>         0.1043
     55 H22         8.4523  -12.5779   -4.2001 H         1 <0>         0.0611
     56 H23         6.1830  -13.3417   -3.6287 H         1 <0>         0.0924
     57 H24         5.8135  -13.5937   -5.3523 H         1 <0>         0.0489
     58 H25         4.5282   -2.4966   -0.0532 H         1 <0>         0.4129
@<TRIPOS>BOND
     1    1    6 ar
     2    1    2 ar
     3    1   34 1
     4    2    3 ar
     5    2   35 1
     6    3    4 ar
     7    3   36 1
     8    4   10 1
     9    4    5 ar
    10    5    6 ar
    11    5    7 1
    12    6   37 1
    13    7   18 1
    14    7    8 2
    15    8    9 1
    16    8   12 1
    17    9   10 am
    18    9   58 1
    19   10   11 2
    20   12   17 ar
    21   12   13 ar
    22   13   14 ar
    23   13   38 1
    24   14   15 ar
    25   14   33 1
    26   15   16 ar
    27   15   19 1
    28   16   17 ar
    29   16   39 1
    30   17   18 1
    31   18   40 1
    32   18   41 1
    33   19   20 2
    34   19   21 2
    35   19   22 1
    36   22   23 1
    37   22   42 1
    38   23   24 1
    39   23   43 1
    40   23   44 1
    41   24   25 1
    42   24   45 1
    43   24   46 1
    44   25   26 1
    45   25   47 1
    46   25   48 1
    47   26   27 1
    48   26   49 1
    49   27   32 1
    50   27   28 1
    51   28   29 1
    52   28   50 1
    53   28   51 1
    54   29   30 1
    55   29   52 1
    56   29   53 1
    57   30   31 1
    58   31   32 1
    59   31   54 1
    60   31   55 1
    61   32   56 1
    62   32   57 1
@<TRIPOS>MOLECULE
CHEMBL558845
   49    52     0     0     0
SMALL
USER_CHARGES

@<TRIPOS>ATOM
      1 C1          5.3036    3.5323   -0.7966 C.ar      1 <0>        -0.0362
      2 C2          4.0186    3.2538   -0.4310 C.ar      1 <0>        -0.1366
      3 C3          3.6223    1.9377   -0.2015 C.ar      1 <0>         0.1248
      4 C4          4.5557    0.8911   -0.3473 C.ar      1 <0>        -0.1073
      5 C5          3.8298   -0.3442   -0.0383 C.2       1 <0>        -0.1733
      6 C6          2.5696    0.0073    0.2598 C.2       1 <0>         0.0684
      7 N1          2.4288    1.3654    0.1672 N.pl3     1 <0>        -0.5879
      8 H1          1.6073    1.8524    0.3372 H         1 <0>         0.4223
      9 C7          4.3915   -1.7425   -0.0534 C.3       1 <0>        -0.0551
     10 C8          4.3264   -2.3030   -1.4755 C.3       1 <0>         0.1338
     11 N2          4.8725   -3.6624   -1.4901 N.am      1 <0>        -0.7389
     12 C9          4.9171   -4.3583   -2.6435 C.2       1 <0>         0.7100
     13 O1          4.5922   -3.8264   -3.6874 O.2       1 <0>        -0.5606
     14 N3          5.3220   -5.6438   -2.6396 N.am      1 <0>        -0.6484
     15 C10         5.6031   -6.3445   -1.3770 C.3       1 <0>         0.0849
     16 C11         4.8465   -7.6769   -1.3821 C.3       1 <0>        -0.0209
     17 N4          5.2012   -8.4355   -2.5882 N.4       1 <0>        -0.5047
     18 C12         4.7433   -7.7167   -3.7839 C.3       1 <0>        -0.0212
     19 C13         5.4893   -6.3879   -3.8976 C.3       1 <0>         0.1035
     20 C14         5.8638    1.1783   -0.7198 C.ar      1 <0>         0.0020
     21 C15         6.2372    2.5013   -0.9456 C.ar      1 <0>        -0.1611
     22 C16         7.6305    2.7873   -1.3445 C.2       1 <0>         0.5683
     23 O2          8.0818    3.9114   -1.2401 O.2       1 <0>        -0.5316
     24 N5          8.3956    1.7872   -1.8253 N.am      1 <0>        -0.7294
     25 C17         7.8544    0.4430   -2.0086 C.3       1 <0>         0.1154
     26 C18         6.8865    0.0861   -0.8832 C.3       1 <0>        -0.1056
     27 H2          5.6005    4.5550   -0.9765 H         1 <0>         0.1412
     28 H3          3.3056    4.0572   -0.3185 H         1 <0>         0.1307
     29 H4          1.7825   -0.6802    0.5322 H         1 <0>         0.1731
     30 H5          5.4286   -1.7211    0.2816 H         1 <0>         0.0810
     31 H6          3.8072   -2.3760    0.6140 H         1 <0>         0.0788
     32 H7          3.2894   -2.3244   -1.8105 H         1 <0>         0.0738
     33 H8          4.9108   -1.6695   -2.1428 H         1 <0>         0.0769
     34 H9          5.2019   -4.0616   -0.6697 H         1 <0>         0.3958
     35 H10         6.6736   -6.5315   -1.2924 H         1 <0>         0.0992
     36 H11         5.2672   -5.7357   -0.5376 H         1 <0>         0.1219
     37 H12         5.1186   -8.2527   -0.4975 H         1 <0>         0.1477
     38 H13         3.7735   -7.4856   -1.3755 H         1 <0>         0.1358
     39 H14         6.2028   -8.5504   -2.6294 H         1 <0>         0.4296
     40 H15         4.9392   -8.3217   -4.6691 H         1 <0>         0.1487
     41 H16         3.6733   -7.5241   -3.7047 H         1 <0>         0.1357
     42 H17         5.0782   -5.8078   -4.7237 H         1 <0>         0.1390
     43 H18         6.5481   -6.5793   -4.0718 H         1 <0>         0.0946
     44 H19         9.3218    1.9633   -2.0538 H         1 <0>         0.4065
     45 H20         7.3279    0.3958   -2.9618 H         1 <0>         0.0670
     46 H21         8.6743   -0.2751   -2.0173 H         1 <0>         0.0877
     47 H22         7.4419   -0.0318    0.0473 H         1 <0>         0.0890
     48 H23         6.3815   -0.8497   -1.1226 H         1 <0>         0.0960
     49 H24         4.7622   -9.3434   -2.5543 H         1 <0>         0.4358
@<TRIPOS>BOND
     1    1   21 ar
     2    1    2 ar
     3    1   27 1
     4    2    3 ar
     5    2   28 1
     6    3    7 1
     7    3    4 ar
     8    4    5 1
     9    4   20 ar
    10    5    6 2
    11    5    9 1
    12    6    7 1
    13    6   29 1
    14    7    8 1
    15    9   10 1
    16    9   30 1
    17    9   31 1
    18   10   11 1
    19   10   32 1
    20   10   33 1
    21   11   12 am
    22   11   34 1
    23   12   13 2
    24   12   14 am
    25   14   19 1
    26   14   15 1
    27   15   16 1
    28   15   35 1
    29   15   36 1
    30   16   17 1
    31   16   37 1
    32   16   38 1
    33   17   18 1
    34   17   39 1
    35   17   49 1
    36   18   19 1
    37   18   40 1
    38   18   41 1
    39   19   42 1
    40   19   43 1
    41   20   26 1
    42   20   21 ar
    43   21   22 1
    44   22   23 2
    45   22   24 am
    46   24   25 1
    47   24   44 1
    48   25   26 1
    49   25   45 1
    50   25   46 1
    51   26   47 1
    52   26   48 1
@<TRIPOS>MOLECULE
CHEMBL558845__1
   48    51     0     0     0
SMALL
USER_CHARGES

@<TRIPOS>ATOM
      1 C1          5.3015    3.5318   -0.7898 C.ar      1 <0>        -0.0372
      2 C2          4.0156    3.2529   -0.4273 C.ar      1 <0>        -0.1401
      3 C3          3.6189    1.9367   -0.1999 C.ar      1 <0>         0.1251
      4 C4          4.5527    0.8902   -0.3444 C.ar      1 <0>        -0.1078
      5 C5          3.8261   -0.3454   -0.0381 C.2       1 <0>        -0.1629
      6 C6          2.5652    0.0058    0.2574 C.2       1 <0>         0.0628
      7 N1          2.4245    1.3640    0.1656 N.pl3     1 <0>        -0.5892
      8 H1          1.6026    1.8508    0.3341 H         1 <0>         0.4204
      9 C7          4.3879   -1.7437   -0.0529 C.3       1 <0>        -0.0585
     10 C8          4.3247   -2.3036   -1.4754 C.3       1 <0>         0.1394
     11 N2          4.8709   -3.6629   -1.4899 N.am      1 <0>        -0.7488
     12 C9          4.9171   -4.3583   -2.6435 C.2       1 <0>         0.7076
     13 O1          4.5936   -3.8259   -3.6876 O.2       1 <0>        -0.5860
     14 N3          5.3220   -5.6438   -2.6396 N.am      1 <0>        -0.6322
     15 C10         5.6028   -6.3430   -1.3765 C.3       1 <0>         0.1156
     16 C11         6.9893   -6.9881   -1.4750 C.3       1 <0>         0.0414
     17 N4          7.0500   -7.8295   -2.6776 N.3       1 <0>        -0.6893
     18 C12         6.8855   -7.0280   -3.8976 C.3       1 <0>         0.0414
     19 C13         5.4888   -6.3865   -3.8981 C.3       1 <0>         0.1329
     20 C14         5.8616    1.1777   -0.7136 C.ar      1 <0>         0.0083
     21 C15         6.2355    2.5009   -0.9374 C.ar      1 <0>        -0.1666
     22 C16         7.6297    2.7873   -1.3329 C.2       1 <0>         0.5702
     23 O2          8.0807    3.9113   -1.2265 O.2       1 <0>        -0.5384
     24 N5          8.3960    1.7877   -1.8126 N.am      1 <0>        -0.7282
     25 C17         7.8552    0.4436   -1.9983 C.3       1 <0>         0.1143
     26 C18         6.8847    0.0857   -0.8754 C.3       1 <0>        -0.1091
     27 H2          5.5988    4.5546   -0.9681 H         1 <0>         0.1388
     28 H3          3.3023    4.0562   -0.3159 H         1 <0>         0.1284
     29 H4          1.7775   -0.6820    0.5275 H         1 <0>         0.1741
     30 H5          5.4245   -1.7224    0.2834 H         1 <0>         0.0796
     31 H6          3.8027   -2.3775    0.6133 H         1 <0>         0.0798
     32 H7          3.2881   -2.3249   -1.8118 H         1 <0>         0.0681
     33 H8          4.9099   -1.6698   -2.1417 H         1 <0>         0.0695
     34 H9          5.1992   -4.0624   -0.6692 H         1 <0>         0.3948
     35 H10         5.5884   -5.6300   -0.5522 H         1 <0>         0.0790
     36 H11         4.8510   -7.1145   -1.2101 H         1 <0>         0.0787
     37 H12         7.7492   -6.2092   -1.5373 H         1 <0>         0.0365
     38 H13         7.1685   -7.6018   -0.5922 H         1 <0>         0.0886
     39 H14         7.9087   -8.3587   -2.7057 H         1 <0>         0.3486
     40 H15         7.6469   -6.2486   -3.9262 H         1 <0>         0.0367
     41 H16         6.9894   -7.6708   -4.7718 H         1 <0>         0.0893
     42 H17         4.7263   -7.1621   -3.9694 H         1 <0>         0.0739
     43 H18         5.3991   -5.7022   -4.7418 H         1 <0>         0.0967
     44 H19         9.3226    1.9640   -2.0388 H         1 <0>         0.4050
     45 H20         7.3310    0.3972   -2.9528 H         1 <0>         0.0688
     46 H21         8.6752   -0.2745   -2.0057 H         1 <0>         0.0891
     47 H22         7.4380   -0.0329    0.0562 H         1 <0>         0.0893
     48 H23         6.3803   -0.8499   -1.1169 H         1 <0>         0.1012
@<TRIPOS>BOND
     1    1   21 ar
     2    1    2 ar
     3    1   27 1
     4    2    3 ar
     5    2   28 1
     6    3    7 1
     7    3    4 ar
     8    4    5 1
     9    4   20 ar
    10    5    6 2
    11    5    9 1
    12    6    7 1
    13    6   29 1
    14    7    8 1
    15    9   10 1
    16    9   30 1
    17    9   31 1
    18   10   11 1
    19   10   32 1
    20   10   33 1
    21   11   12 am
    22   11   34 1
    23   12   13 2
    24   12   14 am
    25   14   19 1
    26   14   15 1
    27   15   16 1
    28   15   35 1
    29   15   36 1
    30   16   17 1
    31   16   37 1
    32   16   38 1
    33   17   18 1
    34   17   39 1
    35   18   19 1
    36   18   40 1
    37   18   41 1
    38   19   42 1
    39   19   43 1
    40   20   26 1
    41   20   21 ar
    42   21   22 1
    43   22   23 2
    44   22   24 am
    45   24   25 1
    46   24   44 1
    47   25   26 1
    48   25   45 1
    49   25   46 1
    50   26   47 1
    51   26   48 1
@<TRIPOS>MOLECULE
CHEMBL455590
   31    33     0     0     0
SMALL
USER_CHARGES

@<TRIPOS>ATOM
      1 C1         -0.0184    1.5028    0.0103 C.3       1 <0>        -0.0863
      2 C2          0.0021   -0.0041    0.0020 C.2       1 <0>         0.1374
      3 C3          0.0081   -0.8284   -1.1475 C.2       1 <0>        -0.2646
      4 C4         -0.0029   -0.5458   -2.5387 C.2       1 <0>         0.0786
      5 C5          0.0143   -1.5745   -3.4163 C.2       1 <0>        -0.2227
      6 C6          0.0289   -2.9035   -2.9336 C.2       1 <0>         0.5530
      7 O1          0.0346   -3.8278   -3.7298 O.2       1 <0>        -0.5341
      8 N1          0.0370   -3.1701   -1.6171 N.am      1 <0>        -0.6095
      9 H1          0.0494   -4.0906   -1.3115 H         1 <0>         0.4110
     10 C7          0.0279   -2.1503   -0.7044 C.2       1 <0>         0.3431
     11 N2          0.0343   -2.1145    0.6456 N.pl3     1 <0>        -0.3786
     12 N3          0.0230   -0.7750    1.0527 N.2       1 <0>        -0.2715
     13 C8          0.0551   -3.2796    1.5335 C.3       1 <0>         0.0948
     14 C9          0.0282   -1.3710   -4.9085 C.3       1 <0>        -0.0516
     15 C10        -0.4246    0.0433   -5.2649 C.3       1 <0>        -0.1213
     16 C11         0.3900    1.0360   -4.4268 C.3       1 <0>        -0.1215
     17 C12        -0.0401    0.8964   -2.9678 C.3       1 <0>        -0.0942
     18 H2          1.0042    1.8801    0.0026 H         1 <0>         0.0875
     19 H3         -0.5455    1.8639   -0.8728 H         1 <0>         0.0887
     20 H4         -0.5286    1.8543    0.9071 H         1 <0>         0.0820
     21 H5          1.0877   -3.5543    1.7484 H         1 <0>         0.0816
     22 H6         -0.4575   -3.0364    2.4642 H         1 <0>         0.1017
     23 H7         -0.4497   -4.1151    1.0484 H         1 <0>         0.0855
     24 H8          1.0395   -1.5292   -5.2831 H         1 <0>         0.0732
     25 H9         -0.6436   -2.0913   -5.3754 H         1 <0>         0.0780
     26 H10        -0.2510    0.2284   -6.3250 H         1 <0>         0.0720
     27 H11        -1.4852    0.1568   -5.0406 H         1 <0>         0.0664
     28 H12         1.4524    0.8107   -4.5200 H         1 <0>         0.0687
     29 H13         0.1977    2.0522   -4.7710 H         1 <0>         0.0732
     30 H14        -1.0544    1.2789   -2.8541 H         1 <0>         0.0906
     31 H15         0.6344    1.4761   -2.3375 H         1 <0>         0.0890
@<TRIPOS>BOND
     1    1    2 1
     2    1   18 1
     3    1   19 1
     4    1   20 1
     5    2   12 2
     6    2    3 1
     7    3   10 2
     8    3    4 1
     9    4   17 1
    10    4    5 2
    11    5    6 1
    12    5   14 1
    13    6    7 2
    14    6    8 am
    15    8    9 1
    16    8   10 1
    17   10   11 1
    18   11   12 1
    19   11   13 1
    20   13   21 1
    21   13   22 1
    22   13   23 1
    23   14   15 1
    24   14   24 1
    25   14   25 1
    26   15   16 1
    27   15   26 1
    28   15   27 1
    29   16   17 1
    30   16   28 1
    31   16   29 1
    32   17   30 1
    33   17   31 1
@<TRIPOS>MOLECULE
CHEMBL525167
   40    43     0     0     0
SMALL
USER_CHARGES

@<TRIPOS>ATOM
      1 C1          0.1809    1.4553   -0.0021 C.3       1 <0>         0.0946
      2 N1          0.0865   -0.0066   -0.0035 N.pl3     1 <0>        -0.3681
      3 C2         -0.0851   -0.7885   -1.0866 C.2       1 <0>         0.3146
      4 C3         -0.1317   -2.0875   -0.6585 C.2       1 <0>        -0.2570
      5 C4          0.0288   -2.0932    0.7263 C.2       1 <0>         0.1500
      6 N2          0.1651   -0.8408    1.1239 N.2       1 <0>        -0.2746
      7 C5          0.0495   -3.2939    1.5986 C.ar      1 <0>        -0.0171
      8 C6          0.7547   -4.4300    1.2075 C.ar      1 <0>        -0.0981
      9 C7          0.7711   -5.5437    2.0227 C.ar      1 <0>        -0.1198
     10 C8          0.0891   -5.5331    3.2260 C.ar      1 <0>        -0.1101
     11 C9         -0.6126   -4.4078    3.6192 C.ar      1 <0>        -0.1206
     12 C10        -0.6313   -3.2868    2.8141 C.ar      1 <0>        -0.0901
     13 C11        -0.3396   -3.2364   -1.6190 C.3       1 <0>         0.0079
     14 C12         1.0310   -3.6689   -2.1478 C.3       1 <0>        -0.1145
     15 C13         0.8630   -4.7306   -3.2341 C.3       1 <0>        -0.1219
     16 C14         0.0616   -4.1357   -4.3954 C.3       1 <0>        -0.1231
     17 C15        -1.3235   -3.7329   -3.8868 C.3       1 <0>        -0.1000
     18 C16        -1.1992   -2.7101   -2.7689 C.3       1 <0>        -0.1006
     19 C17        -0.6999   -1.3924   -3.2771 C.2       1 <0>         0.5418
     20 O1         -0.7478   -1.1591   -4.4664 O.2       1 <0>        -0.5075
     21 N3         -0.1963   -0.4559   -2.4385 N.am      1 <0>        -0.6498
     22 H1          1.2229    1.7523   -0.1209 H         1 <0>         0.0803
     23 H2         -0.4079    1.8582   -0.8262 H         1 <0>         0.0852
     24 H3         -0.2022    1.8433    0.9417 H         1 <0>         0.0996
     25 H4          1.2872   -4.4394    0.2679 H         1 <0>         0.1304
     26 H5          1.3171   -6.4250    1.7203 H         1 <0>         0.1271
     27 H6          0.1042   -6.4068    3.8607 H         1 <0>         0.1244
     28 H7         -1.1437   -4.4050    4.5596 H         1 <0>         0.1260
     29 H8         -1.1761   -2.4073    3.1240 H         1 <0>         0.1251
     30 H9         -0.8444   -4.0620   -1.1173 H         1 <0>         0.1013
     31 H10         1.5472   -2.8040   -2.5643 H         1 <0>         0.0583
     32 H11         1.6212   -4.0800   -1.3287 H         1 <0>         0.0705
     33 H12         1.8436   -5.0451   -3.5913 H         1 <0>         0.0654
     34 H13         0.3300   -5.5891   -2.8254 H         1 <0>         0.0679
     35 H14         0.5778   -3.2574   -4.7830 H         1 <0>         0.0650
     36 H15        -0.0418   -4.8789   -5.1860 H         1 <0>         0.0682
     37 H16        -1.8979   -3.3026   -4.7072 H         1 <0>         0.0771
     38 H17        -1.8410   -4.6159   -3.5119 H         1 <0>         0.0780
     39 H18        -2.1999   -2.5333   -2.3747 H         1 <0>         0.1012
     40 H19         0.0775    0.4154   -2.7653 H         1 <0>         0.4129
@<TRIPOS>BOND
     1    1    2 1
     2    1   22 1
     3    1   23 1
     4    1   24 1
     5    2    6 1
     6    2    3 1
     7    3   21 1
     8    3    4 2
     9    4    5 1
    10    4   13 1
    11    5    6 2
    12    5    7 1
    13    7   12 ar
    14    7    8 ar
    15    8    9 ar
    16    8   25 1
    17    9   10 ar
    18    9   26 1
    19   10   11 ar
    20   10   27 1
    21   11   12 ar
    22   11   28 1
    23   12   29 1
    24   13   18 1
    25   13   14 1
    26   13   30 1
    27   14   15 1
    28   14   31 1
    29   14   32 1
    30   15   16 1
    31   15   33 1
    32   15   34 1
    33   16   17 1
    34   16   35 1
    35   16   36 1
    36   17   18 1
    37   17   37 1
    38   17   38 1
    39   18   19 1
    40   18   39 1
    41   19   20 2
    42   19   21 am
    43   21   40 1
@<TRIPOS>MOLECULE
CHEMBL525167__1
   40    43     0     0     0
SMALL
USER_CHARGES

@<TRIPOS>ATOM
      1 C1         -0.2892    1.4432   -0.0089 C.3       1 <0>         0.0952
      2 N1         -0.1134   -0.0112   -0.0056 N.pl3     1 <0>        -0.3678
      3 C2          0.1338   -0.7804   -1.0827 C.2       1 <0>         0.3148
      4 C3          0.2154   -2.0819   -0.6530 C.2       1 <0>        -0.2546
      5 C4          0.0250   -2.0913    0.7283 C.2       1 <0>         0.1517
      6 N2         -0.1672   -0.8459    1.1222 N.2       1 <0>        -0.2744
      7 C5          0.0415   -3.2902    1.6031 C.ar      1 <0>        -0.0146
      8 C6          0.8219   -3.3029    2.7572 C.ar      1 <0>        -0.0902
      9 C7          0.8331   -4.4203    3.5674 C.ar      1 <0>        -0.1202
     10 C8          0.0716   -5.5261    3.2352 C.ar      1 <0>        -0.1092
     11 C9         -0.7049   -5.5190    2.0906 C.ar      1 <0>        -0.1217
     12 C10        -0.7277   -4.4049    1.2761 C.ar      1 <0>        -0.0902
     13 C11         0.4612   -3.2043   -1.6174 C.3       1 <0>         0.0063
     14 C12         1.1898   -4.3813   -0.9783 C.3       1 <0>        -0.1214
     15 C13         1.3588   -5.4787   -2.0361 C.3       1 <0>        -0.1213
     16 C14         2.1501   -4.9489   -3.2311 C.3       1 <0>        -0.1198
     17 C15         1.4450   -3.7310   -3.8407 C.3       1 <0>        -0.0975
     18 C16         1.3171   -2.6596   -2.7651 C.3       1 <0>        -0.1059
     19 C17         0.7667   -1.3691   -3.2826 C.2       1 <0>         0.5430
     20 O1          0.7568   -1.1551   -4.4764 O.2       1 <0>        -0.5055
     21 N3          0.2779   -0.4362   -2.4281 N.am      1 <0>        -0.6514
     22 H1          0.6780    1.9264    0.1296 H         1 <0>         0.0808
     23 H2         -0.7182    1.7552   -0.9611 H         1 <0>         0.0844
     24 H3         -0.9582    1.7302    0.8024 H         1 <0>         0.0995
     25 H4          1.4171   -2.4401    3.0173 H         1 <0>         0.1243
     26 H5          1.4379   -4.4313    4.4621 H         1 <0>         0.1259
     27 H6          0.0836   -6.3985    3.8718 H         1 <0>         0.1245
     28 H7         -1.2973   -6.3852    1.8357 H         1 <0>         0.1275
     29 H8         -1.3375   -4.3988    0.3847 H         1 <0>         0.1270
     30 H9         -0.4920   -3.5542   -2.0136 H         1 <0>         0.0798
     31 H10         2.1690   -4.0585   -0.6247 H         1 <0>         0.0657
     32 H11         0.6051   -4.7645   -0.1420 H         1 <0>         0.0887
     33 H12         1.8901   -6.3234   -1.5976 H         1 <0>         0.0665
     34 H13         0.3762   -5.8097   -2.3725 H         1 <0>         0.0637
     35 H14         3.1488   -4.6607   -2.9030 H         1 <0>         0.0634
     36 H15         2.2331   -5.7322   -3.9846 H         1 <0>         0.0690
     37 H16         2.0334   -3.3457   -4.6735 H         1 <0>         0.0771
     38 H17         0.4537   -4.0188   -4.1908 H         1 <0>         0.0707
     39 H18         2.3136   -2.4555   -2.3733 H         1 <0>         0.1044
     40 H19         0.0342    0.4481   -2.7438 H         1 <0>         0.4115
@<TRIPOS>BOND
     1    1    2 1
     2    1   22 1
     3    1   23 1
     4    1   24 1
     5    2    6 1
     6    2    3 1
     7    3   21 1
     8    3    4 2
     9    4    5 1
    10    4   13 1
    11    5    6 2
    12    5    7 1
    13    7   12 ar
    14    7    8 ar
    15    8    9 ar
    16    8   25 1
    17    9   10 ar
    18    9   26 1
    19   10   11 ar
    20   10   27 1
    21   11   12 ar
    22   11   28 1
    23   12   29 1
    24   13   18 1
    25   13   14 1
    26   13   30 1
    27   14   15 1
    28   14   31 1
    29   14   32 1
    30   15   16 1
    31   15   33 1
    32   15   34 1
    33   16   17 1
    34   16   35 1
    35   16   36 1
    36   17   18 1
    37   17   37 1
    38   17   38 1
    39   18   19 1
    40   18   39 1
    41   19   20 2
    42   19   21 am
    43   21   40 1
@<TRIPOS>MOLECULE
CHEMBL525167__2
   40    43     0     0     0
SMALL
USER_CHARGES

@<TRIPOS>ATOM
      1 C1          0.3786    1.4361   -0.0347 C.3       1 <0>         0.0943
      2 N1          0.1707   -0.0140   -0.0162 N.pl3     1 <0>        -0.3678
      3 C2         -0.1761   -0.7768   -1.0702 C.2       1 <0>         0.3148
      4 C3         -0.2529   -2.0765   -0.6342 C.2       1 <0>        -0.2547
      5 C4          0.0437   -2.0910    0.7282 C.2       1 <0>         0.1516
      6 N2          0.3043   -0.8521    1.1023 N.2       1 <0>        -0.2744
      7 C5          0.0679   -3.2899    1.6029 C.ar      1 <0>        -0.0145
      8 C6          0.7860   -4.4206    1.2196 C.ar      1 <0>        -0.0902
      9 C7          0.8056   -5.5325    2.0371 C.ar      1 <0>        -0.1217
     10 C8          0.1139   -5.5256    3.2349 C.ar      1 <0>        -0.1092
     11 C9         -0.6006   -4.4057    3.6203 C.ar      1 <0>        -0.1202
     12 C10        -0.6226   -3.2865    2.8130 C.ar      1 <0>        -0.0901
     13 C11        -0.5974   -3.1924   -1.5755 C.3       1 <0>         0.0063
     14 C12        -1.3001   -4.3535   -0.8808 C.3       1 <0>        -0.1213
     15 C13        -1.5747   -5.4461   -1.9212 C.3       1 <0>        -0.1213
     16 C14        -2.4445   -4.8981   -3.0517 C.3       1 <0>        -0.1198
     17 C15        -1.7620   -3.6956   -3.7154 C.3       1 <0>        -0.0976
     18 C16        -1.5275   -2.6281   -2.6540 C.3       1 <0>        -0.1060
     19 C17        -0.9904   -1.3497   -3.2138 C.2       1 <0>         0.5428
     20 O1         -1.0688   -1.1349   -4.4050 O.2       1 <0>        -0.5055
     21 N3         -0.4164   -0.4284   -2.4007 N.am      1 <0>        -0.6513
     22 H1          1.4219    1.6507   -0.2660 H         1 <0>         0.0808
     23 H2         -0.2617    1.8852   -0.7940 H         1 <0>         0.0850
     24 H3          0.1301    1.8512    0.9420 H         1 <0>         0.0997
     25 H4          1.3261   -4.4271    0.2844 H         1 <0>         0.1270
     26 H5          1.3616   -6.4097    1.7408 H         1 <0>         0.1275
     27 H6          0.1315   -6.3980    3.8714 H         1 <0>         0.1245
     28 H7         -1.1392   -4.4058    4.5564 H         1 <0>         0.1259
     29 H8         -1.1775   -2.4111    3.1167 H         1 <0>         0.1243
     30 H9          0.3143   -3.5630   -2.0441 H         1 <0>         0.0798
     31 H10        -0.6609   -4.7501   -0.0919 H         1 <0>         0.0886
     32 H11        -2.2416   -4.0094   -0.4526 H         1 <0>         0.0657
     33 H12        -0.6287   -5.7985   -2.3324 H         1 <0>         0.0637
     34 H13        -2.0890   -6.2792   -1.4420 H         1 <0>         0.0664
     35 H14        -2.6029   -5.6788   -3.7958 H         1 <0>         0.0690
     36 H15        -3.4081   -4.5881   -2.6476 H         1 <0>         0.0634
     37 H16        -0.8074   -4.0049   -4.1410 H         1 <0>         0.0707
     38 H17        -2.4045   -3.2968   -4.5004 H         1 <0>         0.0771
     39 H18        -2.4858   -2.4023   -2.1863 H         1 <0>         0.1044
     40 H19        -0.1790    0.4507   -2.7351 H         1 <0>         0.4119
@<TRIPOS>BOND
     1    1    2 1
     2    1   22 1
     3    1   23 1
     4    1   24 1
     5    2    6 1
     6    2    3 1
     7    3   21 1
     8    3    4 2
     9    4    5 1
    10    4   13 1
    11    5    6 2
    12    5    7 1
    13    7   12 ar
    14    7    8 ar
    15    8    9 ar
    16    8   25 1
    17    9   10 ar
    18    9   26 1
    19   10   11 ar
    20   10   27 1
    21   11   12 ar
    22   11   28 1
    23   12   29 1
    24   13   18 1
    25   13   14 1
    26   13   30 1
    27   14   15 1
    28   14   31 1
    29   14   32 1
    30   15   16 1
    31   15   33 1
    32   15   34 1
    33   16   17 1
    34   16   35 1
    35   16   36 1
    36   17   18 1
    37   17   37 1
    38   17   38 1
    39   18   19 1
    40   18   39 1
    41   19   20 2
    42   19   21 am
    43   21   40 1
@<TRIPOS>MOLECULE
CHEMBL525167__3
   40    43     0     0     0
SMALL
USER_CHARGES

@<TRIPOS>ATOM
      1 C1          0.1729    1.4567    0.0003 C.3       1 <0>         0.0960
      2 N1          0.0832   -0.0055   -0.0018 N.pl3     1 <0>        -0.3684
      3 C2         -0.0812   -0.7877   -1.0858 C.2       1 <0>         0.3146
      4 C3         -0.1043   -2.0883   -0.6605 C.2       1 <0>        -0.2566
      5 C4          0.0386   -2.0930    0.7263 C.2       1 <0>         0.1501
      6 N2          0.1595   -0.8398    1.1257 N.2       1 <0>        -0.2743
      7 C5          0.0576   -3.2938    1.5986 C.ar      1 <0>        -0.0152
      8 C6          0.7712   -4.4266    1.2132 C.ar      1 <0>        -0.0954
      9 C7          0.7858   -5.5403    2.0284 C.ar      1 <0>        -0.1189
     10 C8          0.0938   -5.5330    3.2260 C.ar      1 <0>        -0.1105
     11 C9         -0.6162   -4.4110    3.6134 C.ar      1 <0>        -0.1197
     12 C10        -0.6333   -3.2900    2.8084 C.ar      1 <0>        -0.0903
     13 C11        -0.2524   -3.2408   -1.6277 C.3       1 <0>         0.0062
     14 C12        -1.7476   -3.4931   -1.8421 C.3       1 <0>        -0.1104
     15 C13        -1.9508   -4.5524   -2.9248 C.3       1 <0>        -0.1214
     16 C14        -1.3517   -4.0454   -4.2396 C.3       1 <0>        -0.1233
     17 C15         0.1495   -3.8239   -4.0476 C.3       1 <0>        -0.0998
     18 C16         0.3969   -2.8091   -2.9430 C.3       1 <0>        -0.1012
     19 C17        -0.0334   -1.4329   -3.3491 C.2       1 <0>         0.5420
     20 O1         -0.2150   -1.1910   -4.5237 O.2       1 <0>        -0.5075
     21 N3         -0.2242   -0.4529   -2.4341 N.am      1 <0>        -0.6499
     22 H1          1.2145    1.7570   -0.1139 H         1 <0>         0.0809
     23 H2         -0.4135    1.8579   -0.8262 H         1 <0>         0.0842
     24 H3         -0.2154    1.8432    0.9426 H         1 <0>         0.0989
     25 H4          1.3116   -4.4335    0.2781 H         1 <0>         0.1269
     26 H5          1.3384   -6.4191    1.7304 H         1 <0>         0.1273
     27 H6          0.1076   -6.4067    3.8607 H         1 <0>         0.1245
     28 H7         -1.1551   -4.4108    4.5494 H         1 <0>         0.1260
     29 H8         -1.1847   -2.4130    3.1138 H         1 <0>         0.1251
     30 H9          0.2427   -4.1292   -1.2358 H         1 <0>         0.1014
     31 H10        -2.1932   -3.8393   -0.9096 H         1 <0>         0.0696
     32 H11        -2.2305   -2.5654   -2.1490 H         1 <0>         0.0563
     33 H12        -1.4525   -5.4758   -2.6294 H         1 <0>         0.0672
     34 H13        -3.0166   -4.7383   -3.0575 H         1 <0>         0.0647
     35 H14        -1.5142   -4.7847   -5.0239 H         1 <0>         0.0680
     36 H15        -1.8267   -3.1047   -4.5184 H         1 <0>         0.0648
     37 H16         0.6224   -4.7693   -3.7815 H         1 <0>         0.0778
     38 H17         0.5819   -3.4568   -4.9783 H         1 <0>         0.0771
     39 H18         1.4732   -2.7628   -2.7767 H         1 <0>         0.1010
     40 H19        -0.4519    0.4500   -2.7057 H         1 <0>         0.4125
@<TRIPOS>BOND
     1    1    2 1
     2    1   22 1
     3    1   23 1
     4    1   24 1
     5    2    6 1
     6    2    3 1
     7    3   21 1
     8    3    4 2
     9    4    5 1
    10    4   13 1
    11    5    6 2
    12    5    7 1
    13    7   12 ar
    14    7    8 ar
    15    8    9 ar
    16    8   25 1
    17    9   10 ar
    18    9   26 1
    19   10   11 ar
    20   10   27 1
    21   11   12 ar
    22   11   28 1
    23   12   29 1
    24   13   18 1
    25   13   14 1
    26   13   30 1
    27   14   15 1
    28   14   31 1
    29   14   32 1
    30   15   16 1
    31   15   33 1
    32   15   34 1
    33   16   17 1
    34   16   35 1
    35   16   36 1
    36   17   18 1
    37   17   37 1
    38   17   38 1
    39   18   19 1
    40   18   39 1
    41   19   20 2
    42   19   21 am
    43   21   40 1
@<TRIPOS>MOLECULE
CHEMBL562331
   50    53     0     0     0
SMALL
USER_CHARGES

@<TRIPOS>ATOM
      1 C1         -0.0042    1.5013    0.0715 C.3       1 <0>        -0.0461
      2 N1          0.0248    0.0327    0.0527 N.4       1 <0>        -0.3919
      3 C2         -1.3572   -0.4924    0.0625 C.3       1 <0>        -0.0086
      4 C3         -1.2870   -1.7751    0.9281 C.3       1 <0>        -0.1370
      5 C4         -0.2690   -1.3592    2.0224 C.3       1 <0>        -0.1312
      6 C5          0.7246   -0.4651    1.2512 C.3       1 <0>        -0.0016
      7 C6          0.4303   -2.5689    2.5870 C.2       1 <0>         0.5205
      8 O1          1.6332   -2.6792    2.4794 O.2       1 <0>        -0.5254
      9 N2         -0.2812   -3.5282    3.2115 N.am      1 <0>        -0.7183
     10 C7          0.3985   -4.7042    3.7603 C.3       1 <0>         0.1172
     11 C8         -0.6305   -5.6306    4.4112 C.3       1 <0>        -0.0563
     12 C9          0.0687   -6.8403    4.9758 C.2       1 <0>        -0.1747
     13 C10         0.5029   -6.9964    6.2357 C.2       1 <0>         0.0697
     14 N3          1.0882   -8.2252    6.3796 N.pl3     1 <0>        -0.5877
     15 H1          1.4762   -8.5638    7.2016 H         1 <0>         0.4227
     16 C11         1.0454   -8.9086    5.1884 C.ar      1 <0>         0.1249
     17 C12         0.3985   -8.0732    4.2549 C.ar      1 <0>        -0.1072
     18 C13         0.2065   -8.5129    2.9502 C.ar      1 <0>         0.0006
     19 C14         0.6562   -9.7785    2.5805 C.ar      1 <0>        -0.1616
     20 C15         1.2938  -10.6007    3.5155 C.ar      1 <0>        -0.0369
     21 C16         1.4891  -10.1698    4.7956 C.ar      1 <0>        -0.1357
     22 C17         0.4472  -10.2274    1.1888 C.2       1 <0>         0.5685
     23 O2          0.5228  -11.4072    0.9051 O.2       1 <0>        -0.5303
     24 N4          0.1711   -9.3135    0.2372 N.am      1 <0>        -0.7303
     25 C18         0.1299   -7.8872    0.5487 C.3       1 <0>         0.1166
     26 C19        -0.4799   -7.6472    1.9280 C.3       1 <0>        -0.1054
     27 H2          1.0161    1.8848    0.0799 H         1 <0>         0.1249
     28 H3         -0.5221    1.8659   -0.8156 H         1 <0>         0.1249
     29 H4         -0.5281    1.8430    0.9642 H         1 <0>         0.1225
     30 H5         -2.0354    0.2326    0.5126 H         1 <0>         0.1373
     31 H6         -1.6780   -0.7353   -0.9506 H         1 <0>         0.1401
     32 H7         -2.2586   -2.0045    1.3656 H         1 <0>         0.1254
     33 H8         -0.9132   -2.6182    0.3472 H         1 <0>         0.1054
     34 H9         -0.7625   -0.7941    2.8131 H         1 <0>         0.1347
     35 H10         1.5965   -1.0488    0.9559 H         1 <0>         0.1488
     36 H11         1.0314    0.3733    1.8766 H         1 <0>         0.1399
     37 H12        -1.2433   -3.4400    3.2976 H         1 <0>         0.4048
     38 H13         0.9098   -5.2359    2.9578 H         1 <0>         0.0772
     39 H14         1.1262   -4.3875    4.5075 H         1 <0>         0.0768
     40 H15        -1.1418   -5.0990    5.2137 H         1 <0>         0.0811
     41 H16        -1.3582   -5.9473    3.6640 H         1 <0>         0.0814
     42 H17         0.4055   -6.2608    7.0204 H         1 <0>         0.1739
     43 H18         1.6379  -11.5813    3.2212 H         1 <0>         0.1412
     44 H19         1.9805  -10.8134    5.5103 H         1 <0>         0.1310
     45 H20        -0.0028   -9.6083   -0.6704 H         1 <0>         0.4063
     46 H21         1.1437   -7.4872    0.5308 H         1 <0>         0.0654
     47 H22        -0.4702   -7.3737   -0.2025 H         1 <0>         0.0864
     48 H23        -1.5419   -7.8911    1.9016 H         1 <0>         0.0895
     49 H24        -0.3573   -6.5990    2.2005 H         1 <0>         0.0952
     50 H25         0.5018   -0.2876   -0.7766 H         1 <0>         0.4312
@<TRIPOS>BOND
     1    1    2 1
     2    1   27 1
     3    1   28 1
     4    1   29 1
     5    2    6 1
     6    2    3 1
     7    2   50 1
     8    3    4 1
     9    3   30 1
    10    3   31 1
    11    4    5 1
    12    4   32 1
    13    4   33 1
    14    5    6 1
    15    5    7 1
    16    5   34 1
    17    6   35 1
    18    6   36 1
    19    7    8 2
    20    7    9 am
    21    9   10 1
    22    9   37 1
    23   10   11 1
    24   10   38 1
    25   10   39 1
    26   11   12 1
    27   11   40 1
    28   11   41 1
    29   12   17 1
    30   12   13 2
    31   13   14 1
    32   13   42 1
    33   14   15 1
    34   14   16 1
    35   16   21 ar
    36   16   17 ar
    37   17   18 ar
    38   18   26 1
    39   18   19 ar
    40   19   20 ar
    41   19   22 1
    42   20   21 ar
    43   20   43 1
    44   21   44 1
    45   22   23 2
    46   22   24 am
    47   24   25 1
    48   24   45 1
    49   25   26 1
    50   25   46 1
    51   25   47 1
    52   26   48 1
    53   26   49 1
@<TRIPOS>MOLECULE
CHEMBL562331__1
   50    53     0     0     0
SMALL
USER_CHARGES

@<TRIPOS>ATOM
      1 C1         -0.1059    1.4747    0.0033 C.3       1 <0>        -0.0416
      2 N1         -0.0629    0.0064   -0.0023 N.4       1 <0>        -0.3971
      3 C2         -1.4323   -0.5541    0.1304 C.3       1 <0>        -0.0031
      4 C3         -1.2165   -1.9856    0.6666 C.3       1 <0>        -0.1420
      5 C4          0.1567   -1.9480    1.3682 C.3       1 <0>        -0.1365
      6 C5          0.6552   -0.4970    1.1969 C.3       1 <0>         0.0074
      7 C6          0.0068   -2.2808    2.8304 C.2       1 <0>         0.5195
      8 O1          0.3194   -1.4662    3.6728 O.2       1 <0>        -0.5253
      9 N2         -0.4748   -3.4835    3.2018 N.am      1 <0>        -0.7193
     10 C7         -0.6206   -3.8070    4.6232 C.3       1 <0>         0.1174
     11 C8         -1.1836   -5.2221    4.7691 C.3       1 <0>        -0.0564
     12 C9         -1.3335   -5.5549    6.2312 C.2       1 <0>        -0.1741
     13 C10        -2.4399   -5.4040    6.9754 C.2       1 <0>         0.0684
     14 N3         -2.1990   -5.8124    8.2592 N.pl3     1 <0>        -0.5879
     15 H1         -2.8489   -5.7973    8.9790 H         1 <0>         0.4224
     16 C11        -0.9010   -6.2472    8.3784 C.ar      1 <0>         0.1246
     17 C12        -0.3007   -6.1109    7.1099 C.ar      1 <0>        -0.1075
     18 C13         1.0260   -6.4847    6.9292 C.ar      1 <0>         0.0013
     19 C14         1.7479   -6.9922    8.0072 C.ar      1 <0>        -0.1610
     20 C15         1.1416   -7.1265    9.2607 C.ar      1 <0>        -0.0363
     21 C16        -0.1589   -6.7549    9.4430 C.ar      1 <0>        -0.1364
     22 C17         3.1576   -7.3805    7.7975 C.2       1 <0>         0.5683
     23 O2          3.7197   -8.1090    8.5921 O.2       1 <0>        -0.5310
     24 N4          3.8133   -6.9178    6.7146 N.am      1 <0>        -0.7296
     25 C18         3.1716   -5.9985    5.7784 C.3       1 <0>         0.1156
     26 C19         1.6983   -6.3526    5.5891 C.3       1 <0>        -0.1057
     27 H2          0.9107    1.8680   -0.0014 H         1 <0>         0.1251
     28 H3         -0.6355    1.8261   -0.8822 H         1 <0>         0.1251
     29 H4         -0.6247    1.8196    0.8977 H         1 <0>         0.1225
     30 H5         -2.0164    0.0333    0.8388 H         1 <0>         0.1347
     31 H6         -1.9272   -0.5823   -0.8404 H         1 <0>         0.1398
     32 H7         -1.9991   -2.2447    1.3797 H         1 <0>         0.1150
     33 H8         -1.2017   -2.7000   -0.1565 H         1 <0>         0.1127
     34 H9          0.8456   -2.6440    0.8895 H         1 <0>         0.1358
     35 H10         1.7321   -0.4823    1.0292 H         1 <0>         0.1419
     36 H11         0.3978    0.0992    2.0723 H         1 <0>         0.1499
     37 H12        -0.7248   -4.1350    2.5280 H         1 <0>         0.4053
     38 H13         0.3530   -3.7512    5.1102 H         1 <0>         0.0778
     39 H14        -1.3015   -3.0952    5.0898 H         1 <0>         0.0763
     40 H15        -2.1571   -5.2779    4.2820 H         1 <0>         0.0804
     41 H16        -0.5026   -5.9339    4.3025 H         1 <0>         0.0821
     42 H17        -3.3813   -5.0168    6.6146 H         1 <0>         0.1732
     43 H18         1.7078   -7.5225   10.0908 H         1 <0>         0.1413
     44 H19        -0.6182   -6.8648   10.4142 H         1 <0>         0.1308
     45 H20         4.7274   -7.2000    6.5543 H         1 <0>         0.4067
     46 H21         3.2489   -4.9821    6.1646 H         1 <0>         0.0661
     47 H22         3.6800   -6.0547    4.8159 H         1 <0>         0.0880
     48 H23         1.6194   -7.2966    5.0499 H         1 <0>         0.0898
     49 H24         1.2082   -5.5668    5.0142 H         1 <0>         0.0952
     50 H25         0.3781   -0.3306   -0.8450 H         1 <0>         0.4304
@<TRIPOS>BOND
     1    1    2 1
     2    1   27 1
     3    1   28 1
     4    1   29 1
     5    2    6 1
     6    2    3 1
     7    2   50 1
     8    3    4 1
     9    3   30 1
    10    3   31 1
    11    4    5 1
    12    4   32 1
    13    4   33 1
    14    5    6 1
    15    5    7 1
    16    5   34 1
    17    6   35 1
    18    6   36 1
    19    7    8 2
    20    7    9 am
    21    9   10 1
    22    9   37 1
    23   10   11 1
    24   10   38 1
    25   10   39 1
    26   11   12 1
    27   11   40 1
    28   11   41 1
    29   12   17 1
    30   12   13 2
    31   13   14 1
    32   13   42 1
    33   14   15 1
    34   14   16 1
    35   16   21 ar
    36   16   17 ar
    37   17   18 ar
    38   18   26 1
    39   18   19 ar
    40   19   20 ar
    41   19   22 1
    42   20   21 ar
    43   20   43 1
    44   21   44 1
    45   22   23 2
    46   22   24 am
    47   24   25 1
    48   24   45 1
    49   25   26 1
    50   25   46 1
    51   25   47 1
    52   26   48 1
    53   26   49 1
@<TRIPOS>MOLECULE
CHEMBL564695
   59    63     0     0     0
SMALL
USER_CHARGES

@<TRIPOS>ATOM
      1 C1          5.2534    3.5436   -0.8758 C.ar      1 <0>        -0.0371
      2 C2          3.9679    3.2623   -0.5141 C.ar      1 <0>        -0.1369
      3 C3          3.5761    1.9463   -0.2770 C.ar      1 <0>         0.1251
      4 C4          4.5146    0.9026   -0.4110 C.ar      1 <0>        -0.1075
      5 C5          3.7924   -0.3335   -0.0964 C.2       1 <0>        -0.1705
      6 C6          2.5294    0.0147    0.1934 C.2       1 <0>         0.0670
      7 N1          2.3833    1.3716    0.0903 N.pl3     1 <0>        -0.5882
      8 H1          1.5590    1.8563    0.2530 H         1 <0>         0.4220
      9 C7          4.3601   -1.7295   -0.0988 C.3       1 <0>        -0.0564
     10 C8          4.2988   -2.3025   -1.5161 C.3       1 <0>         0.1190
     11 N2          4.8506   -3.6596   -1.5185 N.am      1 <0>        -0.7292
     12 C9          4.8994   -4.3653   -2.6657 C.2       1 <0>         0.5152
     13 O1          4.4865   -3.8768   -3.6961 O.2       1 <0>        -0.5289
     14 C10         5.4670   -5.7613   -2.6681 C.3       1 <0>        -0.1114
     15 C11         6.9219   -5.7209   -2.1950 C.3       1 <0>        -0.1296
     16 C12         7.4848   -7.1454   -2.1656 C.3       1 <0>         0.0997
     17 N3          7.2974   -7.7553   -3.4891 N.pl3     1 <0>        -0.5663
     18 C13         5.9513   -7.7656   -4.0780 C.3       1 <0>         0.0976
     19 C14         5.4056   -6.3342   -4.0859 C.3       1 <0>        -0.1190
     20 C15         8.3744   -8.3122   -4.1722 C.ar      1 <0>         0.3156
     21 C16         8.2291   -8.7795   -5.4783 C.ar      1 <0>        -0.2135
     22 C17         9.3211   -9.3241   -6.1204 C.ar      1 <0>         0.1670
     23 N4         10.4911   -9.4057   -5.5147 N.ar      1 <0>        -0.4981
     24 C18        10.6689   -8.9752   -4.2797 C.ar      1 <0>         0.1674
     25 C19         9.6288   -8.4123   -3.5706 C.ar      1 <0>        -0.2150
     26 C20         5.8231    1.1926   -0.7795 C.ar      1 <0>         0.0030
     27 C21         6.1920    2.5155   -1.0131 C.ar      1 <0>        -0.1639
     28 C22         7.5859    2.8046   -1.4077 C.2       1 <0>         0.5693
     29 O2          8.0320    3.9313   -1.3092 O.2       1 <0>        -0.5327
     30 N5          8.3575    1.8043   -1.8777 N.am      1 <0>        -0.7299
     31 C23         7.8228    0.4566   -2.0538 C.3       1 <0>         0.1163
     32 C24         6.8511    0.1036   -0.9303 C.3       1 <0>        -0.1067
     33 H2          5.5469    4.5663   -1.0617 H         1 <0>         0.1404
     34 H3          3.2511    4.0635   -0.4107 H         1 <0>         0.1303
     35 H4          1.7439   -0.6741    0.4671 H         1 <0>         0.1739
     36 H5          5.3967   -1.7008    0.2370 H         1 <0>         0.0799
     37 H6          3.7777   -2.3597    0.5734 H         1 <0>         0.0801
     38 H7          3.2622   -2.3312   -1.8519 H         1 <0>         0.0725
     39 H8          4.8811   -1.6724   -2.1883 H         1 <0>         0.0726
     40 H9          5.1808   -4.0503   -0.6943 H         1 <0>         0.4005
     41 H10         4.8842   -6.3914   -1.9962 H         1 <0>         0.1063
     42 H11         7.5106   -5.1112   -2.8804 H         1 <0>         0.0813
     43 H12         6.9672   -5.2912   -1.1943 H         1 <0>         0.0952
     44 H13         8.5475   -7.1135   -1.9252 H         1 <0>         0.0997
     45 H14         6.9556   -7.7320   -1.4147 H         1 <0>         0.0952
     46 H15         6.0022   -8.1429   -5.0993 H         1 <0>         0.0997
     47 H16         5.2971   -8.4028   -3.4830 H         1 <0>         0.0945
     48 H17         4.3717   -6.3410   -4.4311 H         1 <0>         0.0990
     49 H18         6.0085   -5.7187   -4.7535 H         1 <0>         0.0822
     50 H19         7.2745   -8.7160   -5.9795 H         1 <0>         0.1775
     51 H20         9.2177   -9.6888   -7.1317 H         1 <0>         0.2037
     52 H21        11.6425   -9.0608   -3.8202 H         1 <0>         0.2034
     53 H22         9.7823   -8.0575   -2.5621 H         1 <0>         0.1767
     54 H23         9.2839    1.9826   -2.1031 H         1 <0>         0.4055
     55 H24         7.3009    0.4003   -3.0091 H         1 <0>         0.0662
     56 H25         8.6457   -0.2582   -2.0535 H         1 <0>         0.0865
     57 H26         7.4027   -0.0052    0.0035 H         1 <0>         0.0891
     58 H27         6.3512   -0.8360   -1.1653 H         1 <0>         0.0976
     59 H28        11.2418   -9.7936   -5.9909 H         1 <0>         0.4470
@<TRIPOS>BOND
     1    1   27 ar
     2    1    2 ar
     3    1   33 1
     4    2    3 ar
     5    2   34 1
     6    3    7 1
     7    3    4 ar
     8    4    5 1
     9    4   26 ar
    10    5    6 2
    11    5    9 1
    12    6    7 1
    13    6   35 1
    14    7    8 1
    15    9   10 1
    16    9   36 1
    17    9   37 1
    18   10   11 1
    19   10   38 1
    20   10   39 1
    21   11   12 am
    22   11   40 1
    23   12   13 2
    24   12   14 1
    25   14   19 1
    26   14   15 1
    27   14   41 1
    28   15   16 1
    29   15   42 1
    30   15   43 1
    31   16   17 1
    32   16   44 1
    33   16   45 1
    34   17   18 1
    35   17   20 1
    36   18   19 1
    37   18   46 1
    38   18   47 1
    39   19   48 1
    40   19   49 1
    41   20   25 ar
    42   20   21 ar
    43   21   22 ar
    44   21   50 1
    45   22   23 ar
    46   22   51 1
    47   23   24 ar
    48   23   59 1
    49   24   25 ar
    50   24   52 1
    51   25   53 1
    52   26   32 1
    53   26   27 ar
    54   27   28 1
    55   28   29 2
    56   28   30 am
    57   30   31 1
    58   30   54 1
    59   31   32 1
    60   31   55 1
    61   31   56 1
    62   32   57 1
    63   32   58 1
@<TRIPOS>MOLECULE
CHEMBL595924
   45    48     0     0     0
SMALL
USER_CHARGES

@<TRIPOS>ATOM
      1 C1         -0.0168    1.3850    0.0097 C.ar      1 <0>        -0.1717
      2 C2          1.1175    2.1323    0.0028 C.ar      1 <0>        -0.0025
      3 C3          2.3827    1.5134   -0.0130 C.ar      1 <0>        -0.2080
      4 C4          3.6906    1.9653   -0.0240 C.2       1 <0>         0.0898
      5 N1          4.4960    0.8912   -0.0379 N.pl3     1 <0>        -0.2806
      6 N2          3.7289   -0.2797   -0.0363 N.2       1 <0>        -0.2638
      7 C5          2.4541    0.0427   -0.0215 C.ar      1 <0>         0.1431
      8 C6          1.1953   -0.7095   -0.0126 C.ar      1 <0>        -0.1265
      9 C7          0.0021   -0.0041    0.0020 C.ar      1 <0>        -0.0197
     10 C8          1.1987   -2.1810   -0.0207 C.2       1 <0>         0.5623
     11 O1          2.2535   -2.7867   -0.0349 O.2       1 <0>        -0.5244
     12 N3          0.0331   -2.8577   -0.0123 N.am      1 <0>        -0.8540
     13 C9          5.8929    0.9356   -0.0524 C.ar      1 <0>         0.1694
     14 C10         6.5482    2.1623   -0.0473 C.ar      1 <0>        -0.1396
     15 C11         7.9246    2.2096   -0.0611 C.ar      1 <0>        -0.0320
     16 C12         8.6625    1.0236   -0.0802 C.ar      1 <0>        -0.1382
     17 C13         8.0011   -0.2068   -0.0854 C.ar      1 <0>        -0.0624
     18 C14         6.6245   -0.2470   -0.0662 C.ar      1 <0>        -0.1112
     19 C15        10.1386    1.0706   -0.0956 C.2       1 <0>         0.5628
     20 O2         10.7128    2.1421   -0.0915 O.2       1 <0>        -0.5289
     21 N4         10.8491   -0.0746   -0.1140 N.am      1 <0>        -0.7228
     22 C16        12.3133   -0.0281   -0.1292 C.3       1 <0>         0.1606
     23 C17        12.8603   -1.4321   -0.1484 C.ar      1 <0>        -0.0680
     24 C18        13.1253   -2.1068    1.0335 C.ar      1 <0>        -0.1546
     25 C19        13.6266   -3.3935    0.9766 C.ar      1 <0>         0.1004
     26 N5         13.8530   -3.9785   -0.1833 N.ar      1 <0>        -0.4784
     27 C20        13.6129   -3.3673   -1.3268 C.ar      1 <0>         0.1004
     28 C21        13.1053   -2.0821   -1.3484 C.ar      1 <0>        -0.1545
     29 H1         -0.9709    1.8906    0.0261 H         1 <0>         0.1336
     30 H2          1.0487    3.2101    0.0093 H         1 <0>         0.1328
     31 H3          4.0070    2.9979   -0.0217 H         1 <0>         0.1942
     32 H4         -0.9323   -0.5456    0.0080 H         1 <0>         0.1352
     33 H5         -0.8080   -2.3747   -0.0010 H         1 <0>         0.3991
     34 H6          0.0354   -3.8276   -0.0177 H         1 <0>         0.4064
     35 H7          5.9770    3.0788   -0.0328 H         1 <0>         0.1423
     36 H8          8.4328    3.1626   -0.0574 H         1 <0>         0.1515
     37 H9          8.5687   -1.1256   -0.1005 H         1 <0>         0.1372
     38 H10         6.1126   -1.1980   -0.0656 H         1 <0>         0.1515
     39 H11        10.3910   -0.9296   -0.1173 H         1 <0>         0.4027
     40 H12        12.6506    0.5055   -1.0178 H         1 <0>         0.0853
     41 H13        12.6697    0.4886    0.7619 H         1 <0>         0.0854
     42 H14        12.9426   -1.6327    1.9865 H         1 <0>         0.1384
     43 H15        13.8356   -3.9258    1.8928 H         1 <0>         0.1596
     44 H16        13.8112   -3.8786   -2.2572 H         1 <0>         0.1596
     45 H17        12.9060   -1.5886   -2.2882 H         1 <0>         0.1384
@<TRIPOS>BOND
     1    1    9 ar
     2    1    2 ar
     3    1   29 1
     4    2    3 ar
     5    2   30 1
     6    3    7 ar
     7    3    4 2
     8    4    5 1
     9    4   31 1
    10    5    6 1
    11    5   13 1
    12    6    7 2
    13    7    8 ar
    14    8    9 ar
    15    8   10 1
    16    9   32 1
    17   10   11 2
    18   10   12 am
    19   12   33 1
    20   12   34 1
    21   13   18 ar
    22   13   14 ar
    23   14   15 ar
    24   14   35 1
    25   15   16 ar
    26   15   36 1
    27   16   17 ar
    28   16   19 1
    29   17   18 ar
    30   17   37 1
    31   18   38 1
    32   19   20 2
    33   19   21 am
    34   21   22 1
    35   21   39 1
    36   22   23 1
    37   22   40 1
    38   22   41 1
    39   23   28 ar
    40   23   24 ar
    41   24   25 ar
    42   24   42 1
    43   25   26 ar
    44   25   43 1
    45   26   27 ar
    46   27   28 ar
    47   27   44 1
    48   28   45 1
@<TRIPOS>MOLECULE
CHEMBL594141
   52    55     0     0     0
SMALL
USER_CHARGES

@<TRIPOS>ATOM
      1 C1         -0.0168    1.3850    0.0097 C.ar      1 <0>        -0.1720
      2 C2          1.1175    2.1323    0.0028 C.ar      1 <0>        -0.0022
      3 C3          2.3827    1.5134   -0.0130 C.ar      1 <0>        -0.2084
      4 C4          3.6906    1.9653   -0.0240 C.2       1 <0>         0.0900
      5 N1          4.4960    0.8912   -0.0379 N.pl3     1 <0>        -0.2802
      6 N2          3.7289   -0.2797   -0.0363 N.2       1 <0>        -0.2641
      7 C5          2.4541    0.0427   -0.0215 C.ar      1 <0>         0.1431
      8 C6          1.1953   -0.7095   -0.0126 C.ar      1 <0>        -0.1267
      9 C7          0.0021   -0.0041    0.0020 C.ar      1 <0>        -0.0196
     10 C8          1.1987   -2.1810   -0.0207 C.2       1 <0>         0.5624
     11 O1          2.2535   -2.7867   -0.0349 O.2       1 <0>        -0.5246
     12 N3          0.0331   -2.8577   -0.0123 N.am      1 <0>        -0.8540
     13 C9          5.8929    0.9356   -0.0524 C.ar      1 <0>         0.1682
     14 C10         6.5482    2.1623   -0.0473 C.ar      1 <0>        -0.1392
     15 C11         7.9246    2.2096   -0.0611 C.ar      1 <0>        -0.0327
     16 C12         8.6625    1.0236   -0.0802 C.ar      1 <0>        -0.1374
     17 C13         8.0011   -0.2068   -0.0854 C.ar      1 <0>        -0.0633
     18 C14         6.6245   -0.2470   -0.0662 C.ar      1 <0>        -0.1113
     19 C15        10.1386    1.0706   -0.0956 C.2       1 <0>         0.5624
     20 O2         10.7128    2.1421   -0.0915 O.2       1 <0>        -0.5290
     21 N4         10.8491   -0.0746   -0.1140 N.am      1 <0>        -0.7264
     22 C16        12.3133   -0.0281   -0.1292 C.3       1 <0>         0.1218
     23 C17        12.8687   -1.4536   -0.1487 C.3       1 <0>         0.0432
     24 N5         14.3369   -1.4069   -0.1640 N.3       1 <0>        -0.5332
     25 C18        14.8326   -0.8282   -1.4213 C.3       1 <0>         0.0111
     26 C19        16.3604   -0.7435   -1.3703 C.3       1 <0>         0.0627
     27 O3         16.8971   -2.0463   -1.1252 O.3       1 <0>        -0.3848
     28 C20        16.4358   -2.6394    0.0917 C.3       1 <0>         0.0627
     29 C21        14.9088   -2.7433    0.0556 C.3       1 <0>         0.0182
     30 H1         -0.9709    1.8906    0.0261 H         1 <0>         0.1336
     31 H2          1.0487    3.2101    0.0093 H         1 <0>         0.1327
     32 H3          4.0070    2.9979   -0.0217 H         1 <0>         0.1942
     33 H4         -0.9323   -0.5456    0.0080 H         1 <0>         0.1351
     34 H5         -0.8080   -2.3747   -0.0010 H         1 <0>         0.3991
     35 H6          0.0354   -3.8276   -0.0177 H         1 <0>         0.4064
     36 H7          5.9770    3.0788   -0.0328 H         1 <0>         0.1420
     37 H8          8.4328    3.1626   -0.0574 H         1 <0>         0.1513
     38 H9          8.5687   -1.1256   -0.1005 H         1 <0>         0.1378
     39 H10         6.1126   -1.1980   -0.0656 H         1 <0>         0.1513
     40 H11        10.3910   -0.9296   -0.1173 H         1 <0>         0.4005
     41 H12        12.6506    0.5055   -1.0178 H         1 <0>         0.0715
     42 H13        12.6697    0.4886    0.7619 H         1 <0>         0.0816
     43 H14        12.5313   -1.9871    0.7399 H         1 <0>         0.0851
     44 H15        12.5123   -1.9702   -1.0399 H         1 <0>         0.0442
     45 H16        14.5307   -1.4600   -2.2566 H         1 <0>         0.0461
     46 H17        14.4168    0.1709   -1.5509 H         1 <0>         0.0910
     47 H18        16.7360   -0.3683   -2.3223 H         1 <0>         0.1004
     48 H19        16.6610   -0.0692   -0.5685 H         1 <0>         0.0622
     49 H20        16.8660   -3.6353    0.1971 H         1 <0>         0.1005
     50 H21        16.7386   -2.0202    0.9360 H         1 <0>         0.0619
     51 H22        14.5486   -3.1421    1.0039 H         1 <0>         0.0890
     52 H23        14.6081   -3.4057   -0.7562 H         1 <0>         0.0457
@<TRIPOS>BOND
     1    1    9 ar
     2    1    2 ar
     3    1   30 1
     4    2    3 ar
     5    2   31 1
     6    3    7 ar
     7    3    4 2
     8    4    5 1
     9    4   32 1
    10    5    6 1
    11    5   13 1
    12    6    7 2
    13    7    8 ar
    14    8    9 ar
    15    8   10 1
    16    9   33 1
    17   10   11 2
    18   10   12 am
    19   12   34 1
    20   12   35 1
    21   13   18 ar
    22   13   14 ar
    23   14   15 ar
    24   14   36 1
    25   15   16 ar
    26   15   37 1
    27   16   17 ar
    28   16   19 1
    29   17   18 ar
    30   17   38 1
    31   18   39 1
    32   19   20 2
    33   19   21 am
    34   21   22 1
    35   21   40 1
    36   22   23 1
    37   22   41 1
    38   22   42 1
    39   23   24 1
    40   23   43 1
    41   23   44 1
    42   24   29 1
    43   24   25 1
    44   25   26 1
    45   25   45 1
    46   25   46 1
    47   26   27 1
    48   26   47 1
    49   26   48 1
    50   27   28 1
    51   28   29 1
    52   28   49 1
    53   28   50 1
    54   29   51 1
    55   29   52 1
@<TRIPOS>MOLECULE
CHEMBL594141__1
   53    56     0     0     0
SMALL
USER_CHARGES

@<TRIPOS>ATOM
      1 C1         -0.0168    1.3850    0.0097 C.ar      1 <0>        -0.1662
      2 C2          1.1175    2.1323    0.0028 C.ar      1 <0>        -0.0054
      3 C3          2.3827    1.5134   -0.0130 C.ar      1 <0>        -0.2025
      4 C4          3.6906    1.9653   -0.0240 C.2       1 <0>         0.0889
      5 N1          4.4960    0.8912   -0.0379 N.pl3     1 <0>        -0.2899
      6 N2          3.7289   -0.2797   -0.0363 N.2       1 <0>        -0.2647
      7 C5          2.4541    0.0427   -0.0215 C.ar      1 <0>         0.1477
      8 C6          1.1953   -0.7095   -0.0126 C.ar      1 <0>        -0.1283
      9 C7          0.0021   -0.0041    0.0020 C.ar      1 <0>        -0.0157
     10 C8          1.1987   -2.1810   -0.0207 C.2       1 <0>         0.5639
     11 O1          2.2535   -2.7867   -0.0349 O.2       1 <0>        -0.5281
     12 N3          0.0331   -2.8577   -0.0123 N.am      1 <0>        -0.8523
     13 C9          5.8929    0.9356   -0.0524 C.ar      1 <0>         0.1874
     14 C10         6.5482    2.1623   -0.0473 C.ar      1 <0>        -0.1415
     15 C11         7.9246    2.2096   -0.0611 C.ar      1 <0>        -0.0255
     16 C12         8.6625    1.0236   -0.0802 C.ar      1 <0>        -0.1548
     17 C13         8.0011   -0.2068   -0.0854 C.ar      1 <0>        -0.0602
     18 C14         6.6245   -0.2470   -0.0662 C.ar      1 <0>        -0.1151
     19 C15        10.1386    1.0706   -0.0956 C.2       1 <0>         0.5744
     20 O2         10.7128    2.1421   -0.0915 O.2       1 <0>        -0.5188
     21 N4         10.8491   -0.0746   -0.1140 N.am      1 <0>        -0.7321
     22 C16        12.3133   -0.0281   -0.1292 C.3       1 <0>         0.0966
     23 C17        12.8687   -1.4536   -0.1487 C.3       1 <0>        -0.0226
     24 N5         14.3369   -1.4069   -0.1640 N.4       1 <0>        -0.3814
     25 C18        14.7946   -0.7952   -1.4191 C.3       1 <0>        -0.0517
     26 C19        16.3246   -0.7476   -1.4325 C.3       1 <0>         0.0366
     27 O3         16.8390   -2.0729   -1.2757 O.3       1 <0>        -0.3557
     28 C20        16.4013   -2.7204   -0.0778 C.3       1 <0>         0.0357
     29 C21        14.8716   -2.7717   -0.0619 C.3       1 <0>        -0.0429
     30 H1         -0.9709    1.8906    0.0261 H         1 <0>         0.1365
     31 H2          1.0487    3.2101    0.0093 H         1 <0>         0.1348
     32 H3          4.0070    2.9979   -0.0217 H         1 <0>         0.1950
     33 H4         -0.9323   -0.5456    0.0080 H         1 <0>         0.1377
     34 H5         -0.8080   -2.3747   -0.0010 H         1 <0>         0.4003
     35 H6          0.0354   -3.8276   -0.0177 H         1 <0>         0.4075
     36 H7          5.9770    3.0788   -0.0328 H         1 <0>         0.1456
     37 H8          8.4328    3.1626   -0.0574 H         1 <0>         0.1517
     38 H9          8.5687   -1.1256   -0.1005 H         1 <0>         0.1345
     39 H10         6.1126   -1.1980   -0.0656 H         1 <0>         0.1537
     40 H11        10.3910   -0.9296   -0.1173 H         1 <0>         0.4085
     41 H12        12.6506    0.5055   -1.0178 H         1 <0>         0.0916
     42 H13        12.6697    0.4886    0.7619 H         1 <0>         0.0922
     43 H14        12.5313   -1.9871    0.7399 H         1 <0>         0.1417
     44 H15        12.5123   -1.9702   -1.0399 H         1 <0>         0.1397
     45 H16        14.4420   -1.3887   -2.2626 H         1 <0>         0.1420
     46 H17        14.3986    0.2174   -1.4958 H         1 <0>         0.1454
     47 H18        16.6676   -0.3337   -2.3807 H         1 <0>         0.1438
     48 H19        16.6764   -0.1212   -0.6127 H         1 <0>         0.0831
     49 H20        16.7999   -3.7344   -0.0456 H         1 <0>         0.1438
     50 H21        16.7558   -2.1616    0.7884 H         1 <0>         0.0827
     51 H22        14.5326   -3.2264    0.8690 H         1 <0>         0.1448
     52 H23        14.5189   -3.3645   -0.9059 H         1 <0>         0.1410
     53 H24        14.6642   -0.8581    0.6169 H         1 <0>         0.4262
@<TRIPOS>BOND
     1    1    9 ar
     2    1    2 ar
     3    1   30 1
     4    2    3 ar
     5    2   31 1
     6    3    7 ar
     7    3    4 2
     8    4    5 1
     9    4   32 1
    10    5    6 1
    11    5   13 1
    12    6    7 2
    13    7    8 ar
    14    8    9 ar
    15    8   10 1
    16    9   33 1
    17   10   11 2
    18   10   12 am
    19   12   34 1
    20   12   35 1
    21   13   18 ar
    22   13   14 ar
    23   14   15 ar
    24   14   36 1
    25   15   16 ar
    26   15   37 1
    27   16   17 ar
    28   16   19 1
    29   17   18 ar
    30   17   38 1
    31   18   39 1
    32   19   20 2
    33   19   21 am
    34   21   22 1
    35   21   40 1
    36   22   23 1
    37   22   41 1
    38   22   42 1
    39   23   24 1
    40   23   43 1
    41   23   44 1
    42   24   29 1
    43   24   25 1
    44   24   53 1
    45   25   26 1
    46   25   45 1
    47   25   46 1
    48   26   27 1
    49   26   47 1
    50   26   48 1
    51   27   28 1
    52   28   29 1
    53   28   49 1
    54   28   50 1
    55   29   51 1
    56   29   52 1
@<TRIPOS>MOLECULE
CHEMBL85733
   60    64     0     0     0
SMALL
USER_CHARGES

@<TRIPOS>ATOM
      1 C1         -0.0165    1.3630    0.0095 C.ar      1 <0>        -0.0769
      2 C2          1.1650    2.0935    0.0022 C.ar      1 <0>        -0.1321
      3 C3          2.3792    1.4638   -0.0116 C.ar      1 <0>        -0.0458
      4 C4          2.4270    0.0703   -0.0190 C.ar      1 <0>        -0.1508
      5 C5          1.2278   -0.6733   -0.0137 C.ar      1 <0>         0.0089
      6 C6          0.0021   -0.0041    0.0020 C.ar      1 <0>        -0.1288
      7 C7          1.3000   -2.1416   -0.0277 C.2       1 <0>        -0.1757
      8 C8          2.4951   -2.7439   -0.0514 C.2       1 <0>         0.1545
      9 N1          3.6618   -2.0119   -0.0445 N.am      1 <0>        -0.6359
     10 C9          3.6929   -0.6699   -0.0319 C.2       1 <0>         0.5509
     11 O1          4.7562   -0.0762   -0.0309 O.2       1 <0>        -0.5193
     12 C10         2.6503   -4.2445   -0.1067 C.3       1 <0>        -0.1071
     13 C11         1.3888   -4.9467    0.3894 C.3       1 <0>         0.1110
     14 N2          0.2365   -4.3195   -0.2805 N.am      1 <0>        -0.6146
     15 C12        -0.0029   -2.9005   -0.0010 C.3       1 <0>         0.1757
     16 C13        -0.5609   -5.0182   -1.1127 C.2       1 <0>         0.5227
     17 O2         -1.5023   -4.4739   -1.6497 O.2       1 <0>        -0.5184
     18 C14        -0.2827   -6.4757   -1.3760 C.3       1 <0>         0.0370
     19 N3         -1.2860   -7.0049   -2.3093 N.3       1 <0>        -0.5239
     20 C15        -2.6228   -7.0032   -1.7015 C.3       1 <0>         0.0506
     21 C16        -3.6601   -7.4216   -2.7460 C.3       1 <0>        -0.1325
     22 C17        -3.3175   -8.8202   -3.2666 C.3       1 <0>         0.0272
     23 C18        -1.9022   -8.8063   -3.8507 C.3       1 <0>        -0.1345
     24 C19        -0.9158   -8.3478   -2.7742 C.3       1 <0>         0.0574
     25 N4         -4.2761   -9.2034   -4.3117 N.4       1 <0>        -0.3918
     26 C20        -4.0105  -10.5924   -4.7660 C.3       1 <0>        -0.0059
     27 C21        -5.3614  -11.0263   -5.3884 C.3       1 <0>        -0.1455
     28 C22        -6.4006  -10.3707   -4.4503 C.3       1 <0>        -0.1447
     29 C23        -5.6501   -9.2141   -3.7644 C.3       1 <0>        -0.0089
     30 H1         -0.9632    1.8824    0.0259 H         1 <0>         0.1317
     31 H2          1.1243    3.1727    0.0070 H         1 <0>         0.1338
     32 H3          3.2923    2.0406   -0.0169 H         1 <0>         0.1400
     33 H4         -0.9229   -0.5615    0.0085 H         1 <0>         0.1331
     34 H5          2.8462   -4.5460   -1.1356 H         1 <0>         0.0963
     35 H6          3.4932   -4.5400    0.5181 H         1 <0>         0.1016
     36 H7          1.4317   -6.0061    0.1367 H         1 <0>         0.0977
     37 H8          1.2991   -4.8266    1.4690 H         1 <0>         0.0894
     38 H9         -0.4610   -2.7980    0.9827 H         1 <0>         0.0836
     39 H10        -0.6751   -2.4917   -0.7554 H         1 <0>         0.1046
     40 H11         0.7108   -6.5831   -1.8113 H         1 <0>         0.1123
     41 H12        -0.3304   -7.0298   -0.4386 H         1 <0>         0.0728
     42 H13        -2.6435   -7.7050   -0.8677 H         1 <0>         0.0414
     43 H14        -2.8557   -6.0019   -1.3392 H         1 <0>         0.1146
     44 H15        -4.6502   -7.4354   -2.2904 H         1 <0>         0.0910
     45 H16        -3.6496   -6.7125   -3.5737 H         1 <0>         0.0971
     46 H17        -3.3660   -9.5363   -2.4463 H         1 <0>         0.1322
     47 H18        -1.6363   -9.8094   -4.1844 H         1 <0>         0.0927
     48 H19        -1.8640   -8.1190   -4.6958 H         1 <0>         0.0966
     49 H20         0.0910   -8.3231   -3.1910 H         1 <0>         0.0981
     50 H21        -0.9445   -9.0432   -1.9354 H         1 <0>         0.0481
     51 H22        -3.2192  -10.6073   -5.5155 H         1 <0>         0.1348
     52 H23        -3.7534  -11.2311   -3.9209 H         1 <0>         0.1319
     53 H24        -5.4602  -10.6407   -6.4031 H         1 <0>         0.0981
     54 H25        -5.4609  -12.1117   -5.3757 H         1 <0>         0.1161
     55 H26        -7.2418   -9.9864   -5.0273 H         1 <0>         0.1050
     56 H27        -6.7471  -11.0897   -3.7080 H         1 <0>         0.1029
     57 H28        -5.6195   -9.3783   -2.6873 H         1 <0>         0.1287
     58 H29        -6.1448   -8.2681   -3.9846 H         1 <0>         0.1319
     59 H30         4.5051   -2.4912   -0.0489 H         1 <0>         0.4129
     60 H31        -4.2166   -8.5644   -5.0902 H         1 <0>         0.4261
@<TRIPOS>BOND
     1    1    6 ar
     2    1    2 ar
     3    1   30 1
     4    2    3 ar
     5    2   31 1
     6    3    4 ar
     7    3   32 1
     8    4   10 1
     9    4    5 ar
    10    5    6 ar
    11    5    7 1
    12    6   33 1
    13    7   15 1
    14    7    8 2
    15    8    9 1
    16    8   12 1
    17    9   10 am
    18    9   59 1
    19   10   11 2
    20   12   13 1
    21   12   34 1
    22   12   35 1
    23   13   14 1
    24   13   36 1
    25   13   37 1
    26   14   15 1
    27   14   16 am
    28   15   38 1
    29   15   39 1
    30   16   17 2
    31   16   18 1
    32   18   19 1
    33   18   40 1
    34   18   41 1
    35   19   24 1
    36   19   20 1
    37   20   21 1
    38   20   42 1
    39   20   43 1
    40   21   22 1
    41   21   44 1
    42   21   45 1
    43   22   23 1
    44   22   25 1
    45   22   46 1
    46   23   24 1
    47   23   47 1
    48   23   48 1
    49   24   49 1
    50   24   50 1
    51   25   29 1
    52   25   26 1
    53   25   60 1
    54   26   27 1
    55   26   51 1
    56   26   52 1
    57   27   28 1
    58   27   53 1
    59   27   54 1
    60   28   29 1
    61   28   55 1
    62   28   56 1
    63   29   57 1
    64   29   58 1
@<TRIPOS>MOLECULE
CHEMBL497597
   45    48     0     0     0
SMALL
USER_CHARGES

@<TRIPOS>ATOM
      1 C1         -0.2928    1.5083    0.2407 C.3       1 <0>        -0.1803
      2 C2         -0.1606   -0.0124    0.1355 C.3       1 <0>         0.1492
      3 C3         -1.5138   -0.6805    0.4577 C.3       1 <0>        -0.1325
      4 C4         -1.0987   -1.9417    1.2601 C.3       1 <0>        -0.1408
      5 C5          0.1217   -1.4176    2.0574 C.3       1 <0>        -0.0065
      6 N1          0.8149   -0.5009    1.1274 N.4       1 <0>        -0.3767
      7 C6          1.3705    0.6349    1.8752 C.3       1 <0>        -0.0173
      8 C7          2.5789    1.2928    1.1883 C.3       1 <0>        -0.1490
      9 C8          3.2058    1.4185    2.5869 C.3       1 <0>        -0.1333
     10 C9          2.3348    0.2200    2.9990 C.3       1 <0>        -0.1435
     11 C10         0.2854   -0.3932   -1.2527 C.2       1 <0>         0.2424
     12 N2         -0.3868   -0.0971   -2.3956 N.pl3     1 <0>        -0.5727
     13 H1         -1.2239    0.3886   -2.4622 H         1 <0>         0.4319
     14 C11         0.3457   -0.6170   -3.4453 C.ar      1 <0>         0.0555
     15 C12         0.1771   -0.6359   -4.8223 C.ar      1 <0>        -0.0792
     16 C13         1.1132   -1.2542   -5.6278 C.ar      1 <0>        -0.0921
     17 C14         2.2272   -1.8604   -5.0767 C.ar      1 <0>        -0.0756
     18 C15         2.4211   -1.8556   -3.6979 C.ar      1 <0>        -0.0849
     19 C16         1.4705   -1.2270   -2.8661 C.ar      1 <0>         0.1046
     20 N3          1.3750   -1.0500   -1.5335 N.2       1 <0>        -0.4669
     21 C17         3.6094   -2.5018   -3.1121 C.2       1 <0>         0.5625
     22 O1          3.7737   -2.4946   -1.9072 O.2       1 <0>        -0.5251
     23 N4          4.5139   -3.1007   -3.9120 N.am      1 <0>        -0.8481
     24 H2          0.6888    1.9673    0.1224 H         1 <0>         0.0973
     25 H3         -0.9597    1.8700   -0.5419 H         1 <0>         0.1000
     26 H4         -0.7014    1.7708    1.2165 H         1 <0>         0.1003
     27 H5         -2.1331   -0.0224    1.0672 H         1 <0>         0.1163
     28 H6         -2.0332   -0.9605   -0.4588 H         1 <0>         0.1089
     29 H7         -1.8972   -2.2577    1.9314 H         1 <0>         0.1234
     30 H8         -0.8092   -2.7523    0.5913 H         1 <0>         0.0992
     31 H9         -0.2083   -0.8789    2.9457 H         1 <0>         0.1359
     32 H10         0.7767   -2.2434    2.3349 H         1 <0>         0.1377
     33 H11         0.6079    1.3453    2.1944 H         1 <0>         0.1643
     34 H12         3.1231    0.6208    0.5247 H         1 <0>         0.1087
     35 H13         2.3489    2.2522    0.7250 H         1 <0>         0.0981
     36 H14         4.2752    1.2084    2.6065 H         1 <0>         0.0958
     37 H15         2.9458    2.3442    3.1003 H         1 <0>         0.1008
     38 H16         1.9077    0.3135    3.9974 H         1 <0>         0.1019
     39 H17         2.8123   -0.7452    2.8304 H         1 <0>         0.1032
     40 H18        -0.6885   -0.1661   -5.2655 H         1 <0>         0.1390
     41 H19         0.9736   -1.2648   -6.6987 H         1 <0>         0.1500
     42 H20         2.9506   -2.3404   -5.7192 H         1 <0>         0.1439
     43 H21         4.3829   -3.1064   -4.8731 H         1 <0>         0.4024
     44 H22         5.2959   -3.5259   -3.5265 H         1 <0>         0.4105
     45 H23         1.5596   -0.9933    0.6573 H         1 <0>         0.4408
@<TRIPOS>BOND
     1    1    2 1
     2    1   24 1
     3    1   25 1
     4    1   26 1
     5    2    6 1
     6    2    3 1
     7    2   11 1
     8    3    4 1
     9    3   27 1
    10    3   28 1
    11    4    5 1
    12    4   29 1
    13    4   30 1
    14    5    6 1
    15    5   31 1
    16    5   32 1
    17    6    7 1
    18    6   45 1
    19    7   10 1
    20    7    8 1
    21    7   33 1
    22    8    9 1
    23    8   34 1
    24    8   35 1
    25    9   10 1
    26    9   36 1
    27    9   37 1
    28   10   38 1
    29   10   39 1
    30   11   20 2
    31   11   12 1
    32   12   13 1
    33   12   14 1
    34   14   19 ar
    35   14   15 ar
    36   15   16 ar
    37   15   40 1
    38   16   17 ar
    39   16   41 1
    40   17   18 ar
    41   17   42 1
    42   18   19 ar
    43   18   21 1
    44   19   20 1
    45   21   22 2
    46   21   23 am
    47   23   43 1
    48   23   44 1
@<TRIPOS>MOLECULE
CHEMBL497597__1
   45    48     0     0     0
SMALL
USER_CHARGES

@<TRIPOS>ATOM
      1 C1         -0.0553    1.2424   -0.4544 C.3       1 <0>        -0.1853
      2 C2          0.1124   -0.2460   -0.1423 C.3       1 <0>         0.1486
      3 C3          1.0969   -0.8849   -1.1443 C.3       1 <0>        -0.1259
      4 C4          2.4407   -0.8742   -0.3690 C.3       1 <0>        -0.1382
      5 C5          1.9676   -1.1462    1.0808 C.3       1 <0>        -0.0064
      6 N1          0.6890   -0.4143    1.2043 N.4       1 <0>        -0.3749
      7 C6         -0.2392   -1.1795    2.0474 C.3       1 <0>        -0.0132
      8 C7          0.0733   -1.0854    3.5502 C.3       1 <0>        -0.1441
      9 C8         -1.4447   -0.9991    3.7804 C.3       1 <0>        -0.1292
     10 C9         -1.5497   -0.4352    2.3535 C.3       1 <0>        -0.1535
     11 C10        -1.2235   -0.9392   -0.2182 C.2       1 <0>         0.2411
     12 N2         -2.4116   -0.3189   -0.4407 N.pl3     1 <0>        -0.5789
     13 H1         -2.5485    0.6317   -0.5767 H         1 <0>         0.4298
     14 C11        -3.3883   -1.2961   -0.4373 C.ar      1 <0>         0.0555
     15 C12        -4.7652   -1.2834   -0.6070 C.ar      1 <0>        -0.0822
     16 C13        -5.4829   -2.4619   -0.5468 C.ar      1 <0>        -0.0902
     17 C14        -4.8430   -3.6662   -0.3181 C.ar      1 <0>        -0.0775
     18 C15        -3.4620   -3.7073   -0.1447 C.ar      1 <0>        -0.0813
     19 C16        -2.7196   -2.5090   -0.2039 C.ar      1 <0>         0.0951
     20 N3         -1.4081   -2.2222   -0.0858 N.2       1 <0>        -0.4378
     21 C17        -2.7815   -4.9921    0.0986 C.2       1 <0>         0.5600
     22 O1         -1.5912   -5.0121    0.3471 O.2       1 <0>        -0.5205
     23 N4         -3.4784   -6.1444    0.0457 N.am      1 <0>        -0.8487
     24 H2          0.9170    1.7336   -0.4156 H         1 <0>         0.1047
     25 H3         -0.4817    1.3589   -1.4507 H         1 <0>         0.1103
     26 H4         -0.7207    1.6951    0.2808 H         1 <0>         0.0840
     27 H5          0.7970   -1.9055   -1.3817 H         1 <0>         0.1141
     28 H6          1.1698   -0.2828   -2.0500 H         1 <0>         0.1167
     29 H7          3.1002   -1.6680   -0.7198 H         1 <0>         0.1220
     30 H8          2.9276    0.0980   -0.4449 H         1 <0>         0.1000
     31 H9          1.8102   -2.2137    1.2346 H         1 <0>         0.1378
     32 H10         2.6952   -0.7622    1.7958 H         1 <0>         0.1371
     33 H11        -0.3888   -2.1998    1.6942 H         1 <0>         0.1837
     34 H12         0.5263   -1.9885    3.9593 H         1 <0>         0.1017
     35 H13         0.6095   -0.1782    3.8287 H         1 <0>         0.0999
     36 H14        -1.9238   -1.9705    3.9023 H         1 <0>         0.0989
     37 H15        -1.7292   -0.2857    4.5538 H         1 <0>         0.0943
     38 H16        -1.4572    0.6497    2.3049 H         1 <0>         0.0954
     39 H17        -2.4069   -0.8134    1.7966 H         1 <0>         0.0934
     40 H18        -5.2772   -0.3495   -0.7864 H         1 <0>         0.1378
     41 H19        -6.5546   -2.4426   -0.6794 H         1 <0>         0.1492
     42 H20        -5.4174   -4.5796   -0.2733 H         1 <0>         0.1435
     43 H21        -4.4278   -6.1284   -0.1525 H         1 <0>         0.4020
     44 H22        -3.0305   -6.9899    0.2058 H         1 <0>         0.4105
     45 H23         0.8544    0.4908    1.6184 H         1 <0>         0.4206
@<TRIPOS>BOND
     1    1    2 1
     2    1   24 1
     3    1   25 1
     4    1   26 1
     5    2    6 1
     6    2    3 1
     7    2   11 1
     8    3    4 1
     9    3   27 1
    10    3   28 1
    11    4    5 1
    12    4   29 1
    13    4   30 1
    14    5    6 1
    15    5   31 1
    16    5   32 1
    17    6    7 1
    18    6   45 1
    19    7   10 1
    20    7    8 1
    21    7   33 1
    22    8    9 1
    23    8   34 1
    24    8   35 1
    25    9   10 1
    26    9   36 1
    27    9   37 1
    28   10   38 1
    29   10   39 1
    30   11   20 2
    31   11   12 1
    32   12   13 1
    33   12   14 1
    34   14   19 ar
    35   14   15 ar
    36   15   16 ar
    37   15   40 1
    38   16   17 ar
    39   16   41 1
    40   17   18 ar
    41   17   42 1
    42   18   19 ar
    43   18   21 1
    44   19   20 1
    45   21   22 2
    46   21   23 am
    47   23   43 1
    48   23   44 1
@<TRIPOS>MOLECULE
CHEMBL594369
   52    55     0     0     0
SMALL
USER_CHARGES

@<TRIPOS>ATOM
      1 C1         -1.2590    1.3709    0.1938 C.3       1 <0>        -0.0473
      2 N1         -1.1785   -0.0958    0.2098 N.4       1 <0>        -0.3872
      3 C2         -2.3453   -0.6407    0.9144 C.3       1 <0>        -0.0059
      4 C3         -2.3083   -2.1696    0.8637 C.3       1 <0>        -0.1304
      5 C4         -1.0256   -2.6663    1.5368 C.3       1 <0>        -0.1193
      6 C5          0.1826   -2.0332    0.8408 C.3       1 <0>        -0.1434
      7 C6          0.0534   -0.5093    0.8924 C.3       1 <0>        -0.0036
      8 C7         -0.9445   -4.1667    1.4215 C.2       1 <0>         0.5154
      9 O1         -1.8254   -4.7800    0.8567 O.2       1 <0>        -0.5024
     10 N2          0.1068   -4.8271    1.9461 N.am      1 <0>        -0.6656
     11 C8          0.1357   -6.2261    1.9248 C.ar      1 <0>         0.1286
     12 C9         -0.4033   -6.9157    0.8461 C.ar      1 <0>        -0.0951
     13 C10        -0.3744   -8.2952    0.8250 C.ar      1 <0>        -0.0851
     14 C11         0.1938   -8.9943    1.8823 C.ar      1 <0>         0.1392
     15 C12         0.7328   -8.3048    2.9610 C.ar      1 <0>        -0.1125
     16 C13         0.7086   -6.9251    2.9798 C.ar      1 <0>        -0.1139
     17 N3          0.2228  -10.3948    1.8610 N.pl3     1 <0>        -0.2787
     18 C14         0.7396  -11.1693    2.8269 C.2       1 <0>         0.0848
     19 C15         0.5801  -12.4896    2.4420 C.ar      1 <0>        -0.2065
     20 C16         0.9067  -13.7363    3.0094 C.ar      1 <0>        -0.0050
     21 C17         0.6069  -14.8909    2.3591 C.ar      1 <0>        -0.1691
     22 C18        -0.0259  -14.9106    1.1228 C.ar      1 <0>        -0.0190
     23 C19        -0.3889  -13.7376    0.4792 C.ar      1 <0>        -0.1272
     24 C20        -0.0917  -12.4590    1.1324 C.ar      1 <0>         0.1432
     25 N4         -0.2887  -11.1936    0.8316 N.2       1 <0>        -0.2660
     26 C21        -1.0579  -13.7749   -0.8310 C.2       1 <0>         0.5629
     27 O2         -1.3707  -12.7376   -1.3840 O.2       1 <0>        -0.5268
     28 N5         -1.3241  -14.9584   -1.4183 N.am      1 <0>        -0.8531
     29 H1         -0.3964    1.7764   -0.3349 H         1 <0>         0.1248
     30 H2         -2.1735    1.6791   -0.3128 H         1 <0>         0.1254
     31 H3         -1.2668    1.7456    1.2174 H         1 <0>         0.1225
     32 H4         -2.3281   -0.3115    1.9533 H         1 <0>         0.1311
     33 H5         -3.2573   -0.2837    0.4361 H         1 <0>         0.1372
     34 H6         -3.1744   -2.5722    1.3888 H         1 <0>         0.1217
     35 H7         -2.3257   -2.4998   -0.1750 H         1 <0>         0.0996
     36 H8         -1.0317   -2.3802    2.5886 H         1 <0>         0.1205
     37 H9          1.0970   -2.3383    1.3497 H         1 <0>         0.1173
     38 H10         0.2170   -2.3606   -0.1983 H         1 <0>         0.0980
     39 H11         0.9121   -0.0554    0.3979 H         1 <0>         0.1369
     40 H12         0.0194   -0.1830    1.9318 H         1 <0>         0.1327
     41 H13         0.8434   -4.3326    2.3383 H         1 <0>         0.4126
     42 H14        -0.8454   -6.3722    0.0242 H         1 <0>         0.1481
     43 H15        -0.7938   -8.8313   -0.0135 H         1 <0>         0.1500
     44 H16         1.1742   -8.8483    3.7832 H         1 <0>         0.1412
     45 H17         1.1317   -6.3889    3.8164 H         1 <0>         0.1403
     46 H18         1.1989  -10.8242    3.7415 H         1 <0>         0.1922
     47 H19         1.4000  -13.7750    3.9693 H         1 <0>         0.1327
     48 H20         0.8713  -15.8303    2.8216 H         1 <0>         0.1347
     49 H21        -0.2392  -15.8594    0.6530 H         1 <0>         0.1362
     50 H22        -1.0747  -15.7856   -0.9773 H         1 <0>         0.3998
     51 H23        -1.7651  -14.9830   -2.2819 H         1 <0>         0.4070
     52 H24        -1.1689   -0.4414   -0.7381 H         1 <0>         0.4266
@<TRIPOS>BOND
     1    1    2 1
     2    1   29 1
     3    1   30 1
     4    1   31 1
     5    2    7 1
     6    2    3 1
     7    2   52 1
     8    3    4 1
     9    3   32 1
    10    3   33 1
    11    4    5 1
    12    4   34 1
    13    4   35 1
    14    5    6 1
    15    5    8 1
    16    5   36 1
    17    6    7 1
    18    6   37 1
    19    6   38 1
    20    7   39 1
    21    7   40 1
    22    8    9 2
    23    8   10 am
    24   10   11 1
    25   10   41 1
    26   11   16 ar
    27   11   12 ar
    28   12   13 ar
    29   12   42 1
    30   13   14 ar
    31   13   43 1
    32   14   15 ar
    33   14   17 1
    34   15   16 ar
    35   15   44 1
    36   16   45 1
    37   17   25 1
    38   17   18 1
    39   18   19 2
    40   18   46 1
    41   19   24 ar
    42   19   20 ar
    43   20   21 ar
    44   20   47 1
    45   21   22 ar
    46   21   48 1
    47   22   23 ar
    48   22   49 1
    49   23   24 ar
    50   23   26 1
    51   24   25 2
    52   26   27 2
    53   26   28 am
    54   28   50 1
    55   28   51 1
@<TRIPOS>MOLECULE
CHEMBL592960
   43    46     0     0     0
SMALL
USER_CHARGES

@<TRIPOS>ATOM
      1 C1         -0.0194    1.3968   -0.0174 C.ar      1 <0>        -0.0898
      2 C2          1.1687    2.1001   -0.0149 C.ar      1 <0>        -0.0765
      3 C3          2.3786    1.4198   -0.0236 C.ar      1 <0>         0.0994
      4 C4          2.3939    0.0286   -0.0343 C.ar      1 <0>         0.1061
      5 C5          1.2047   -0.6745   -0.0363 C.ar      1 <0>        -0.1481
      6 C6         -0.0053    0.0082   -0.0281 C.ar      1 <0>         0.1714
      7 N1         -1.2115   -0.7044   -0.0307 N.pl3     1 <0>        -0.2813
      8 C7         -1.3160   -2.0424   -0.0353 C.2       1 <0>         0.0906
      9 C8         -2.6629   -2.3620   -0.0356 C.ar      1 <0>        -0.1840
     10 C9         -3.3987   -3.5630   -0.0399 C.ar      1 <0>        -0.0467
     11 C10        -4.7586   -3.5404   -0.0393 C.ar      1 <0>         0.0604
     12 C11        -5.4871   -2.3556   -0.0352 C.ar      1 <0>        -0.0525
     13 C12        -4.8562   -1.1212   -0.0308 C.ar      1 <0>        -0.0889
     14 C13        -3.3906   -1.0825   -0.0307 C.ar      1 <0>         0.1370
     15 N2         -2.4864   -0.1266   -0.0226 N.2       1 <0>        -0.2519
     16 C14        -5.6409    0.1239   -0.0269 C.2       1 <0>         0.5645
     17 O1         -5.0739    1.2001   -0.0231 O.2       1 <0>        -0.5190
     18 N3         -6.9876    0.0717   -0.0276 N.am      1 <0>        -0.8492
     19 F1         -5.4277   -4.7141   -0.0435 F         1 <0>        -0.1335
     20 F2          3.5710   -0.6344   -0.0432 F         1 <0>        -0.1251
     21 N4          3.5837    2.1336   -0.0220 N.am      1 <0>        -0.6517
     22 C15         3.6252    3.3849    0.4771 C.2       1 <0>         0.5231
     23 O2          2.6456    3.8558    1.0154 O.2       1 <0>        -0.4927
     24 C16         4.8886    4.1989    0.3664 C.3       1 <0>        -0.1671
     25 C17         5.9155    3.9026    1.4742 C.3       1 <0>         0.0236
     26 N5          6.1300    5.3656    1.5296 N.4       1 <0>        -0.5335
     27 C18         4.7759    5.6047    0.9832 C.3       1 <0>         0.0318
     28 H1         -0.9604    1.9268   -0.0065 H         1 <0>         0.1600
     29 H2          1.1567    3.1800   -0.0066 H         1 <0>         0.1664
     30 H3          1.2156   -1.7544   -0.0450 H         1 <0>         0.1564
     31 H4         -0.4955   -2.7446   -0.0389 H         1 <0>         0.1973
     32 H5         -2.8788   -4.5097   -0.0439 H         1 <0>         0.1480
     33 H6         -6.5663   -2.3981   -0.0357 H         1 <0>         0.1515
     34 H7         -7.4397   -0.7865   -0.0306 H         1 <0>         0.4012
     35 H8         -7.5048    0.8923   -0.0250 H         1 <0>         0.4104
     36 H9          4.3885    1.7275   -0.3802 H         1 <0>         0.4206
     37 H10         5.3108    4.1933   -0.6385 H         1 <0>         0.1604
     38 H11         5.4757    3.4886    2.3815 H         1 <0>         0.1581
     39 H12         6.7854    3.3440    1.1286 H         1 <0>         0.1552
     40 H13         6.2416    5.7117    2.4707 H         1 <0>         0.4332
     41 H14         4.7353    6.4060    0.2455 H         1 <0>         0.1537
     42 H15         4.0027    5.6885    1.7469 H         1 <0>         0.1671
     43 H16         6.8644    5.6794    0.9129 H         1 <0>         0.4441
@<TRIPOS>BOND
     1    1    6 ar
     2    1    2 ar
     3    1   28 1
     4    2    3 ar
     5    2   29 1
     6    3    4 ar
     7    3   21 1
     8    4    5 ar
     9    4   20 1
    10    5    6 ar
    11    5   30 1
    12    6    7 1
    13    7   15 1
    14    7    8 1
    15    8    9 2
    16    8   31 1
    17    9   14 ar
    18    9   10 ar
    19   10   11 ar
    20   10   32 1
    21   11   12 ar
    22   11   19 1
    23   12   13 ar
    24   12   33 1
    25   13   14 ar
    26   13   16 1
    27   14   15 2
    28   16   17 2
    29   16   18 am
    30   18   34 1
    31   18   35 1
    32   21   22 am
    33   21   36 1
    34   22   23 2
    35   22   24 1
    36   24   27 1
    37   24   25 1
    38   24   37 1
    39   25   26 1
    40   25   38 1
    41   25   39 1
    42   26   27 1
    43   26   40 1
    44   26   43 1
    45   27   41 1
    46   27   42 1
@<TRIPOS>MOLECULE
CHEMBL148367
   40    44     0     0     0
SMALL
USER_CHARGES

@<TRIPOS>ATOM
      1 C1         -0.0164    1.3571    0.0095 C.ar      1 <0>        -0.1133
      2 C2          1.1684    2.0898    0.0021 C.ar      1 <0>        -0.1093
      3 C3          2.3787    1.4642   -0.0132 C.ar      1 <0>        -0.1067
      4 C4          2.4362    0.0638   -0.0212 C.ar      1 <0>        -0.0259
      5 C5          1.2330   -0.6829   -0.0133 C.ar      1 <0>        -0.0532
      6 C6          0.0021   -0.0041    0.0020 C.ar      1 <0>        -0.1046
      7 C7          1.2892   -2.0873   -0.0203 C.ar      1 <0>        -0.0888
      8 C8          2.4944   -2.7234   -0.0343 C.ar      1 <0>        -0.1204
      9 C9          3.6851   -2.0079   -0.0418 C.ar      1 <0>        -0.0868
     10 C10         3.6767   -0.6211   -0.0366 C.ar      1 <0>        -0.0355
     11 C11         4.9448    0.1325   -0.0451 C.2       1 <0>         0.1375
     12 C12         5.3933    0.9267    0.9604 C.2       1 <0>        -0.1534
     13 C13         6.6267    1.4942    0.5441 C.ar      1 <0>        -0.0653
     14 C14         7.5099    2.4247    1.1329 C.ar      1 <0>        -0.0927
     15 C15         8.7482    2.6479    0.5266 C.ar      1 <0>        -0.0720
     16 C16         9.0584    2.0392   -0.6743 C.ar      1 <0>        -0.1100
     17 C17         8.1555    1.2046   -1.3031 C.ar      1 <0>        -0.0960
     18 C18         6.9323    0.9257   -0.7051 C.ar      1 <0>         0.0887
     19 N1          5.8619    0.1364   -1.0708 N.pl3     1 <0>        -0.5792
     20 H1          5.7699   -0.3361   -1.9129 H         1 <0>         0.4211
     21 C19         7.1332    3.2135    2.3053 C.2       1 <0>         0.5642
     22 O1          7.5952    4.3354    2.3904 O.2       1 <0>        -0.5449
     23 N2          6.3209    2.8076    3.2988 N.am      1 <0>        -0.7151
     24 C20         5.7692    1.4766    3.3609 C.3       1 <0>         0.1134
     25 C21         4.7564    1.1913    2.2788 C.3       1 <0>        -0.0697
     26 H2         -0.9632    1.8764    0.0259 H         1 <0>         0.1256
     27 H3          1.1270    3.1689    0.0083 H         1 <0>         0.1248
     28 H4          3.2894    2.0446   -0.0195 H         1 <0>         0.1285
     29 H5         -0.9241   -0.5595    0.0082 H         1 <0>         0.1299
     30 H6          0.3757   -2.6634   -0.0144 H         1 <0>         0.1309
     31 H7          2.5243   -3.8029   -0.0392 H         1 <0>         0.1293
     32 H8          4.6267   -2.5368   -0.0525 H         1 <0>         0.1264
     33 H9          9.4674    3.3005    0.9992 H         1 <0>         0.1350
     34 H10        10.0216    2.2192   -1.1284 H         1 <0>         0.1355
     35 H11         8.4001    0.7683   -2.2603 H         1 <0>         0.1270
     36 H12         6.0975    3.4366    4.0026 H         1 <0>         0.4051
     37 H13         6.5835    0.7572    3.2747 H         1 <0>         0.0693
     38 H14         5.2905    1.3425    4.3309 H         1 <0>         0.0897
     39 H15         4.0906    2.0490    2.1833 H         1 <0>         0.0763
     40 H16         4.1678    0.3204    2.5674 H         1 <0>         0.0848
@<TRIPOS>BOND
     1    1    6 ar
     2    1    2 ar
     3    1   26 1
     4    2    3 ar
     5    2   27 1
     6    3    4 ar
     7    3   28 1
     8    4   10 ar
     9    4    5 ar
    10    5    6 ar
    11    5    7 ar
    12    6   29 1
    13    7    8 ar
    14    7   30 1
    15    8    9 ar
    16    8   31 1
    17    9   10 ar
    18    9   32 1
    19   10   11 1
    20   11   19 1
    21   11   12 2
    22   12   25 1
    23   12   13 1
    24   13   18 ar
    25   13   14 ar
    26   14   15 ar
    27   14   21 1
    28   15   16 ar
    29   15   33 1
    30   16   17 ar
    31   16   34 1
    32   17   18 ar
    33   17   35 1
    34   18   19 1
    35   19   20 1
    36   21   22 2
    37   21   23 am
    38   23   24 1
    39   23   36 1
    40   24   25 1
    41   24   37 1
    42   24   38 1
    43   25   39 1
    44   25   40 1
@<TRIPOS>MOLECULE
CHEMBL550369
   36    39     0     0     0
SMALL
USER_CHARGES

@<TRIPOS>ATOM
      1 C1         -0.0165    1.3631    0.0095 C.ar      1 <0>        -0.1643
      2 C2          1.1678    2.0865    0.0021 C.ar      1 <0>        -0.0847
      3 C3          2.3865    1.4408   -0.0135 C.ar      1 <0>        -0.1495
      4 C4          2.4270    0.0533   -0.0213 C.ar      1 <0>         0.2033
      5 C5          1.2246   -0.6772   -0.0133 C.ar      1 <0>        -0.1667
      6 C6          0.0021   -0.0041    0.0020 C.ar      1 <0>        -0.0359
      7 C7          1.3001   -2.1433   -0.0225 C.2       1 <0>         0.4736
      8 O1          0.1710   -2.8896   -0.0157 O.3       1 <0>        -0.6634
      9 N1          2.4802   -2.7194   -0.0377 N.2       1 <0>        -0.6179
     10 C8          3.6226   -2.0082   -0.0452 C.2       1 <0>         0.3569
     11 N2          3.6240   -0.6404   -0.0374 N.pl3     1 <0>        -0.3627
     12 N3          4.9575   -0.2128   -0.0489 N.2       1 <0>        -0.3501
     13 C9          5.7391   -1.2655   -0.0631 C.2       1 <0>         0.1167
     14 C10         4.9511   -2.4100   -0.0605 C.2       1 <0>        -0.3402
     15 C11         7.2457   -1.2385   -0.0787 C.3       1 <0>         0.0024
     16 C12         7.7680   -2.4057   -0.9188 C.3       1 <0>        -0.1089
     17 C13         9.2977   -2.3783   -0.9347 C.3       1 <0>        -0.1177
     18 C14         9.8249   -2.5038    0.4961 C.3       1 <0>        -0.1200
     19 C15         9.3026   -1.3366    1.3362 C.3       1 <0>        -0.1168
     20 C16         7.7729   -1.3640    1.3521 C.3       1 <0>        -0.1077
     21 H1         -0.9619    1.8850    0.0259 H         1 <0>         0.1226
     22 H2          1.1348    3.1660    0.0082 H         1 <0>         0.1238
     23 H3          3.3036    2.0112   -0.0199 H         1 <0>         0.1316
     24 H4         -0.9239   -0.5599    0.0083 H         1 <0>         0.1377
     25 H5          5.3083   -3.4292   -0.0694 H         1 <0>         0.1383
     26 H6          7.5878   -0.2981   -0.5108 H         1 <0>         0.0773
     27 H7          7.4259   -3.3461   -0.4867 H         1 <0>         0.0705
     28 H8          7.3925   -2.3163   -1.9382 H         1 <0>         0.0640
     29 H9          9.6698   -3.2098   -1.5332 H         1 <0>         0.0606
     30 H10         9.6398   -1.4379   -1.3668 H         1 <0>         0.0594
     31 H11         9.4828   -3.4442    0.9282 H         1 <0>         0.0625
     32 H12        10.9146   -2.4843    0.4848 H         1 <0>         0.0566
     33 H13         9.6782   -1.4260    2.3556 H         1 <0>         0.0596
     34 H14         9.6447   -0.3962    0.9041 H         1 <0>         0.0600
     35 H15         7.4008   -0.5325    1.9506 H         1 <0>         0.0619
     36 H16         7.4308   -2.3044    1.7842 H         1 <0>         0.0672
@<TRIPOS>BOND
     1    1    6 ar
     2    1    2 ar
     3    1   21 1
     4    2    3 ar
     5    2   22 1
     6    3    4 ar
     7    3   23 1
     8    4   11 1
     9    4    5 ar
    10    5    6 ar
    11    5    7 1
    12    6   24 1
    13    7    8 1
    14    7    9 2
    15    9   10 1
    16   10   14 2
    17   10   11 1
    18   11   12 1
    19   12   13 2
    20   13   14 1
    21   13   15 1
    22   14   25 1
    23   15   20 1
    24   15   16 1
    25   15   26 1
    26   16   17 1
    27   16   27 1
    28   16   28 1
    29   17   18 1
    30   17   29 1
    31   17   30 1
    32   18   19 1
    33   18   31 1
    34   18   32 1
    35   19   20 1
    36   19   33 1
    37   19   34 1
    38   20   35 1
    39   20   36 1
@<TRIPOS>MOLECULE
CHEMBL424802
   33    36     0     0     0
SMALL
USER_CHARGES

@<TRIPOS>ATOM
      1 C1          2.3445    1.4415   -0.2566 C.ar      1 <0>        -0.0670
      2 C2          1.1293    2.0570    0.0118 C.ar      1 <0>        -0.1699
      3 C3          0.0133    1.2784    0.2565 C.ar      1 <0>         0.1073
      4 N1          0.0884   -0.0368    0.2387 N.ar      1 <0>        -0.4868
      5 C4          1.2312   -0.6651   -0.0137 C.ar      1 <0>         0.1807
      6 C5          2.3963    0.0592   -0.2698 C.ar      1 <0>        -0.1466
      7 C6          1.2692   -2.1427   -0.0230 C.2       1 <0>         0.1223
      8 C7          2.3914   -2.8926   -0.1293 C.2       1 <0>        -0.1563
      9 C8          1.9677   -4.2914   -0.0973 C.ar      1 <0>        -0.1204
     10 C9          2.6449   -5.5034   -0.2643 C.ar      1 <0>        -0.0329
     11 C10         1.9524   -6.6913   -0.1733 C.ar      1 <0>        -0.1584
     12 C11         0.6006   -6.6964    0.1112 C.ar      1 <0>        -0.0254
     13 C12        -0.1000   -5.4997    0.2927 C.ar      1 <0>        -0.1479
     14 C13         0.5784   -4.2826    0.1237 C.ar      1 <0>         0.1396
     15 N2          0.1669   -2.9661    0.0813 N.pl3     1 <0>        -0.4637
     16 C14        -1.2170   -2.5439    0.1150 C.3       1 <0>         0.0889
     17 C15        -2.1591   -3.5430   -0.5037 C.3       1 <0>         0.0923
     18 N3         -2.4505   -4.6630    0.3600 N.am      1 <0>        -0.7177
     19 C16        -1.5109   -5.5612    0.6831 C.2       1 <0>         0.5615
     20 O1         -1.8592   -6.4992    1.3740 O.2       1 <0>        -0.5416
     21 H1          3.2288    2.0288   -0.4551 H         1 <0>         0.1420
     22 H2          1.0565    3.1344    0.0296 H         1 <0>         0.1396
     23 H3         -0.9330    1.7549    0.4655 H         1 <0>         0.1612
     24 H4          3.3251   -0.4521   -0.4754 H         1 <0>         0.1429
     25 H5          3.4039   -2.5279   -0.2206 H         1 <0>         0.1579
     26 H6          3.7062   -5.5085   -0.4642 H         1 <0>         0.1328
     27 H7          2.4709   -7.6263   -0.3261 H         1 <0>         0.1347
     28 H8          0.0774   -7.6376    0.1943 H         1 <0>         0.1373
     29 H9         -1.5088   -2.3841    1.1530 H         1 <0>         0.0785
     30 H10        -1.3077   -1.5990   -0.4208 H         1 <0>         0.1192
     31 H11        -3.0934   -3.0378   -0.7488 H         1 <0>         0.1100
     32 H12        -1.7150   -3.9184   -1.4257 H         1 <0>         0.0762
     33 H13        -3.3505   -4.7708    0.7054 H         1 <0>         0.4099
@<TRIPOS>BOND
     1    1    6 ar
     2    1    2 ar
     3    1   21 1
     4    2    3 ar
     5    2   22 1
     6    3    4 ar
     7    3   23 1
     8    4    5 ar
     9    5    6 ar
    10    5    7 1
    11    6   24 1
    12    7   15 1
    13    7    8 2
    14    8    9 1
    15    8   25 1
    16    9   14 ar
    17    9   10 ar
    18   10   11 ar
    19   10   26 1
    20   11   12 ar
    21   11   27 1
    22   12   13 ar
    23   12   28 1
    24   13   19 1
    25   13   14 ar
    26   14   15 1
    27   15   16 1
    28   16   17 1
    29   16   29 1
    30   16   30 1
    31   17   18 1
    32   17   31 1
    33   17   32 1
    34   18   19 am
    35   18   33 1
    36   19   20 2
@<TRIPOS>MOLECULE
CHEMBL185702
   40    43     0     0     0
SMALL
USER_CHARGES

@<TRIPOS>ATOM
      1 C1         -0.0167    1.3781    0.0096 C.ar      1 <0>        -0.1226
      2 C2          1.1709    2.0855    0.0021 C.ar      1 <0>        -0.1170
      3 C3          2.3773    1.4107   -0.0130 C.ar      1 <0>        -0.1152
      4 C4          2.3960    0.0285   -0.0201 C.ar      1 <0>        -0.0858
      5 C5          1.2084   -0.6789   -0.0117 C.ar      1 <0>        -0.1179
      6 C6          0.0021   -0.0041    0.0020 C.ar      1 <0>        -0.1179
      7 C7          3.7112   -0.7071   -0.0376 C.3       1 <0>        -0.0742
      8 C8          4.1714   -0.9633    1.3989 C.3       1 <0>        -0.0540
      9 C9          5.4865   -1.6989    1.3815 C.2       1 <0>         0.0860
     10 C10         6.6896   -1.1175    1.2818 C.2       1 <0>        -0.1868
     11 C11         7.6834   -2.1940    1.3025 C.ar      1 <0>        -0.1148
     12 C12         9.0694   -2.2285    1.1361 C.ar      1 <0>        -0.0385
     13 C13         9.7377   -3.4317    1.2145 C.ar      1 <0>        -0.1573
     14 C14         9.0522   -4.5998    1.4858 C.ar      1 <0>        -0.0319
     15 C15         7.6658   -4.5922    1.6675 C.ar      1 <0>        -0.1476
     16 C16         6.9673   -3.3850    1.5112 C.ar      1 <0>         0.1320
     17 N1          5.6261   -3.0605    1.4712 N.pl3     1 <0>        -0.4797
     18 C17         4.5540   -4.0327    1.4941 C.3       1 <0>         0.0845
     19 C18         4.9307   -5.3474    0.8627 C.3       1 <0>         0.0948
     20 N2          5.7422   -6.1807    1.7181 N.am      1 <0>        -0.7190
     21 C19         6.9958   -5.8395    2.0450 C.2       1 <0>         0.5617
     22 O1          7.6227   -6.6275    2.7266 O.2       1 <0>        -0.5401
     23 H1         -0.9591    1.9053    0.0259 H         1 <0>         0.1217
     24 H2          1.1563    3.1654    0.0076 H         1 <0>         0.1228
     25 H3          3.3051    1.9634   -0.0196 H         1 <0>         0.1231
     26 H4          1.2231   -1.7588   -0.0176 H         1 <0>         0.1191
     27 H5         -0.9258   -0.5567    0.0082 H         1 <0>         0.1219
     28 H6          3.5884   -1.6586   -0.5549 H         1 <0>         0.0716
     29 H7          4.4573   -0.1052   -0.5563 H         1 <0>         0.0812
     30 H8          4.2941   -0.0118    1.9163 H         1 <0>         0.0941
     31 H9          3.4252   -1.5652    1.9176 H         1 <0>         0.0752
     32 H10         6.8885   -0.0591    1.2013 H         1 <0>         0.1522
     33 H11         9.6156   -1.3163    0.9464 H         1 <0>         0.1306
     34 H12        10.8065   -3.4613    1.0622 H         1 <0>         0.1330
     35 H13         9.5941   -5.5312    1.5582 H         1 <0>         0.1357
     36 H14         4.2658   -4.2117    2.5300 H         1 <0>         0.0781
     37 H15         3.6968   -3.6212    0.9611 H         1 <0>         0.1026
     38 H16         4.0186   -5.8884    0.6107 H         1 <0>         0.1100
     39 H17         5.4816   -5.1486   -0.0566 H         1 <0>         0.0784
     40 H18         5.3725   -7.0117    2.0552 H         1 <0>         0.4099
@<TRIPOS>BOND
     1    1    6 ar
     2    1    2 ar
     3    1   23 1
     4    2    3 ar
     5    2   24 1
     6    3    4 ar
     7    3   25 1
     8    4    5 ar
     9    4    7 1
    10    5    6 ar
    11    5   26 1
    12    6   27 1
    13    7    8 1
    14    7   28 1
    15    7   29 1
    16    8    9 1
    17    8   30 1
    18    8   31 1
    19    9   17 1
    20    9   10 2
    21   10   11 1
    22   10   32 1
    23   11   16 ar
    24   11   12 ar
    25   12   13 ar
    26   12   33 1
    27   13   14 ar
    28   13   34 1
    29   14   15 ar
    30   14   35 1
    31   15   21 1
    32   15   16 ar
    33   16   17 1
    34   17   18 1
    35   18   19 1
    36   18   36 1
    37   18   37 1
    38   19   20 1
    39   19   38 1
    40   19   39 1
    41   20   21 am
    42   20   40 1
    43   21   22 2
@<TRIPOS>MOLECULE
CHEMBL563408
   43    46     0     0     0
SMALL
USER_CHARGES

@<TRIPOS>ATOM
      1 C1         -0.0165    1.3634    0.0095 C.ar      1 <0>        -0.1576
      2 C2          1.1676    2.0867    0.0021 C.ar      1 <0>        -0.0852
      3 C3          2.3865    1.4407   -0.0134 C.ar      1 <0>        -0.1449
      4 C4          2.4265    0.0533   -0.0212 C.ar      1 <0>         0.1949
      5 C5          1.2244   -0.6770   -0.0132 C.ar      1 <0>        -0.1581
      6 C6          0.0021   -0.0041    0.0020 C.ar      1 <0>        -0.0367
      7 C7          1.2997   -2.1436   -0.0222 C.2       1 <0>         0.4744
      8 O1          0.1704   -2.8896   -0.0155 O.3       1 <0>        -0.6566
      9 N1          2.4789   -2.7201   -0.0374 N.2       1 <0>        -0.6110
     10 C8          3.6232   -2.0093   -0.0449 C.2       1 <0>         0.3567
     11 N2          3.6247   -0.6402   -0.0372 N.pl3     1 <0>        -0.3478
     12 N3          4.9563   -0.2064   -0.0482 N.2       1 <0>        -0.3214
     13 C9          5.7465   -1.2651   -0.0622 C.2       1 <0>         0.0611
     14 C10         4.9466   -2.4167   -0.0614 C.2       1 <0>        -0.2839
     15 C11         7.2242   -1.2398   -0.0778 C.2       1 <0>         0.6121
     16 O2          7.8498   -2.2820   -0.0904 O.2       1 <0>        -0.5265
     17 N4          7.8781   -0.0613   -0.0780 N.am      1 <0>        -0.7229
     18 C12         9.3428   -0.0363   -0.0935 C.3       1 <0>         0.1238
     19 C13         9.8281    1.4147   -0.0904 C.3       1 <0>         0.0444
     20 N5         11.2968    1.4398   -0.1060 N.3       1 <0>        -0.5329
     21 C14        11.8463    0.8915    1.1425 C.3       1 <0>         0.0103
     22 C15        13.3750    0.8812    1.0597 C.3       1 <0>         0.0636
     23 O3         13.8422    2.2075    0.7990 O.3       1 <0>        -0.3872
     24 C16        13.3272    2.7722   -0.4098 C.3       1 <0>         0.0637
     25 C17        11.7980    2.8016   -0.3419 C.3       1 <0>         0.0180
     26 H1         -0.9619    1.8853    0.0259 H         1 <0>         0.1245
     27 H2          1.1347    3.1662    0.0082 H         1 <0>         0.1257
     28 H3          3.3037    2.0108   -0.0198 H         1 <0>         0.1331
     29 H4         -0.9239   -0.5599    0.0082 H         1 <0>         0.1399
     30 H5          5.2991   -3.4375   -0.0705 H         1 <0>         0.1520
     31 H6          7.3788    0.7703   -0.0680 H         1 <0>         0.4072
     32 H7          9.7243   -0.5489    0.7895 H         1 <0>         0.0682
     33 H8          9.7053   -0.5387   -0.9903 H         1 <0>         0.0786
     34 H9          9.4466    1.9273   -0.9735 H         1 <0>         0.0852
     35 H10         9.4656    1.9172    0.8063 H         1 <0>         0.0445
     36 H11        11.5314    1.5114    1.9820 H         1 <0>         0.0454
     37 H12        11.4826   -0.1262    1.2842 H         1 <0>         0.0932
     38 H13        13.7883    0.5289    2.0048 H         1 <0>         0.0991
     39 H14        13.6914    0.2189    0.2539 H         1 <0>         0.0618
     40 H15        13.7059    3.7875   -0.5275 H         1 <0>         0.0980
     41 H16        13.6422    2.1648   -1.2583 H         1 <0>         0.0609
     42 H17        11.3990    3.1782   -1.2838 H         1 <0>         0.0882
     43 H18        11.4823    3.4520    0.4738 H         1 <0>         0.0444
@<TRIPOS>BOND
     1    1    6 ar
     2    1    2 ar
     3    1   26 1
     4    2    3 ar
     5    2   27 1
     6    3    4 ar
     7    3   28 1
     8    4   11 1
     9    4    5 ar
    10    5    6 ar
    11    5    7 1
    12    6   29 1
    13    7    8 1
    14    7    9 2
    15    9   10 1
    16   10   14 2
    17   10   11 1
    18   11   12 1
    19   12   13 2
    20   13   14 1
    21   13   15 1
    22   14   30 1
    23   15   16 2
    24   15   17 am
    25   17   18 1
    26   17   31 1
    27   18   19 1
    28   18   32 1
    29   18   33 1
    30   19   20 1
    31   19   34 1
    32   19   35 1
    33   20   25 1
    34   20   21 1
    35   21   22 1
    36   21   36 1
    37   21   37 1
    38   22   23 1
    39   22   38 1
    40   22   39 1
    41   23   24 1
    42   24   25 1
    43   24   40 1
    44   24   41 1
    45   25   42 1
    46   25   43 1
@<TRIPOS>MOLECULE
CHEMBL563408__1
   44    47     0     0     0
SMALL
USER_CHARGES

@<TRIPOS>ATOM
      1 C1         -0.0165    1.3634    0.0095 C.ar      1 <0>        -0.1523
      2 C2          1.1676    2.0867    0.0021 C.ar      1 <0>        -0.0836
      3 C3          2.3865    1.4407   -0.0134 C.ar      1 <0>        -0.1453
      4 C4          2.4265    0.0533   -0.0212 C.ar      1 <0>         0.1895
      5 C5          1.2244   -0.6770   -0.0132 C.ar      1 <0>        -0.1553
      6 C6          0.0021   -0.0041    0.0020 C.ar      1 <0>        -0.0348
      7 C7          1.2997   -2.1436   -0.0222 C.2       1 <0>         0.4761
      8 O1          0.1704   -2.8896   -0.0155 O.3       1 <0>        -0.6437
      9 N1          2.4789   -2.7201   -0.0374 N.2       1 <0>        -0.6106
     10 C8          3.6232   -2.0093   -0.0449 C.2       1 <0>         0.3641
     11 N2          3.6247   -0.6402   -0.0372 N.pl3     1 <0>        -0.3427
     12 N3          4.9563   -0.2064   -0.0482 N.2       1 <0>        -0.3271
     13 C9          5.7465   -1.2651   -0.0622 C.2       1 <0>         0.0482
     14 C10         4.9466   -2.4167   -0.0614 C.2       1 <0>        -0.2826
     15 C11         7.2242   -1.2398   -0.0778 C.2       1 <0>         0.6237
     16 O2          7.8498   -2.2820   -0.0904 O.2       1 <0>        -0.5158
     17 N4          7.8781   -0.0613   -0.0780 N.am      1 <0>        -0.7278
     18 C12         9.3428   -0.0363   -0.0935 C.3       1 <0>         0.0984
     19 C13         9.8281    1.4147   -0.0904 C.3       1 <0>        -0.0217
     20 N5         11.2968    1.4398   -0.1060 N.4       1 <0>        -0.3810
     21 C14        11.8100    0.8567    1.1413 C.3       1 <0>        -0.0522
     22 C15        13.3404    0.8838    1.1226 C.3       1 <0>         0.0375
     23 O3         13.7860    2.2320    0.9506 O.3       1 <0>        -0.3581
     24 C16        13.2923    2.8521   -0.2399 C.3       1 <0>         0.0366
     25 C17        11.7619    2.8287   -0.2238 C.3       1 <0>        -0.0426
     26 H1         -0.9619    1.8853    0.0259 H         1 <0>         0.1278
     27 H2          1.1347    3.1662    0.0082 H         1 <0>         0.1274
     28 H3          3.3037    2.0108   -0.0198 H         1 <0>         0.1312
     29 H4         -0.9239   -0.5599    0.0082 H         1 <0>         0.1427
     30 H5          5.2991   -3.4375   -0.0705 H         1 <0>         0.1526
     31 H6          7.3788    0.7703   -0.0680 H         1 <0>         0.4153
     32 H7          9.7243   -0.5489    0.7895 H         1 <0>         0.0884
     33 H8          9.7053   -0.5387   -0.9903 H         1 <0>         0.0893
     34 H9          9.4466    1.9273   -0.9735 H         1 <0>         0.1419
     35 H10         9.4656    1.9172    0.8063 H         1 <0>         0.1397
     36 H11        11.4464    1.4359    1.9901 H         1 <0>         0.1417
     37 H12        11.4657   -0.1737    1.2296 H         1 <0>         0.1474
     38 H13        13.7229    0.4913    2.0648 H         1 <0>         0.1426
     39 H14        13.7052    0.2718    0.2976 H         1 <0>         0.0824
     40 H15        13.6401    3.8842   -0.2839 H         1 <0>         0.1415
     41 H16        13.6555    2.3075   -1.1115 H         1 <0>         0.0815
     42 H17        11.3818    3.2622   -1.1488 H         1 <0>         0.1440
     43 H18        11.3983    3.4071    0.6255 H         1 <0>         0.1402
     44 H19        11.6342    0.9042   -0.8917 H         1 <0>         0.4255
@<TRIPOS>BOND
     1    1    6 ar
     2    1    2 ar
     3    1   26 1
     4    2    3 ar
     5    2   27 1
     6    3    4 ar
     7    3   28 1
     8    4   11 1
     9    4    5 ar
    10    5    6 ar
    11    5    7 1
    12    6   29 1
    13    7    8 1
    14    7    9 2
    15    9   10 1
    16   10   14 2
    17   10   11 1
    18   11   12 1
    19   12   13 2
    20   13   14 1
    21   13   15 1
    22   14   30 1
    23   15   16 2
    24   15   17 am
    25   17   18 1
    26   17   31 1
    27   18   19 1
    28   18   32 1
    29   18   33 1
    30   19   20 1
    31   19   34 1
    32   19   35 1
    33   20   25 1
    34   20   21 1
    35   20   44 1
    36   21   22 1
    37   21   36 1
    38   21   37 1
    39   22   23 1
    40   22   38 1
    41   22   39 1
    42   23   24 1
    43   24   25 1
    44   24   40 1
    45   24   41 1
    46   25   42 1
    47   25   43 1
@<TRIPOS>MOLECULE
CHEMBL551001
   33    35     0     0     0
SMALL
USER_CHARGES

@<TRIPOS>ATOM
      1 C1         -0.0170    1.3951   -0.0416 C.ar      1 <0>        -0.0350
      2 C2          1.1502    2.1021   -0.0253 C.ar      1 <0>        -0.1298
      3 C3          2.3750    1.4376   -0.0252 C.ar      1 <0>         0.1232
      4 C4          2.4055    0.0280   -0.0433 C.ar      1 <0>        -0.1056
      5 C5          3.8227   -0.3460   -0.0386 C.2       1 <0>        -0.1991
      6 C6          4.5279    0.7954   -0.0189 C.2       1 <0>         0.0883
      7 N1          3.6794    1.8691   -0.0106 N.pl3     1 <0>        -0.5838
      8 H1          3.9579    2.7982    0.0031 H         1 <0>         0.4267
      9 C7          4.3812   -1.7456   -0.0524 C.3       1 <0>        -0.0676
     10 C8          4.4664   -2.2748    1.3806 C.3       1 <0>        -0.0131
     11 N2          5.0109   -3.6391    1.3671 N.4       1 <0>        -0.6393
     12 C9          1.2147   -0.6890   -0.0600 C.ar      1 <0>        -0.0108
     13 C10         0.0020   -0.0035   -0.0581 C.ar      1 <0>        -0.1495
     14 C11        -1.2534   -0.7820   -0.0721 C.2       1 <0>         0.5652
     15 O1         -2.3011   -0.2540   -0.3906 O.2       1 <0>        -0.5227
     16 N3         -1.2233   -2.0849    0.2721 N.am      1 <0>        -0.7297
     17 C12         0.0158   -2.7224    0.7095 C.3       1 <0>         0.1131
     18 C13         1.2102   -2.1940   -0.0812 C.3       1 <0>        -0.1001
     19 H2         -0.9615    1.9188   -0.0373 H         1 <0>         0.1449
     20 H3          1.1246    3.1818   -0.0128 H         1 <0>         0.1345
     21 H4          5.6061    0.8575   -0.0104 H         1 <0>         0.1767
     22 H5          3.7287   -2.3914   -0.6400 H         1 <0>         0.0955
     23 H6          5.3769   -1.7350   -0.4957 H         1 <0>         0.0961
     24 H7          5.1189   -1.6290    1.9682 H         1 <0>         0.1366
     25 H8          3.4707   -2.2853    1.8239 H         1 <0>         0.1342
     26 H9          5.0671   -3.9881    2.3122 H         1 <0>         0.4392
     27 H10         4.4069   -4.2369    0.8232 H         1 <0>         0.4345
     28 H11        -2.0390   -2.6082    0.2288 H         1 <0>         0.4101
     29 H12         0.1693   -2.5177    1.7691 H         1 <0>         0.0662
     30 H13        -0.0637   -3.7993    0.5615 H         1 <0>         0.0910
     31 H14         1.1431   -2.5413   -1.1122 H         1 <0>         0.0934
     32 H15         2.1330   -2.5651    0.3649 H         1 <0>         0.0807
     33 H16         5.9326   -3.6294    0.9568 H         1 <0>         0.4360
@<TRIPOS>BOND
     1    1   13 ar
     2    1    2 ar
     3    1   19 1
     4    2    3 ar
     5    2   20 1
     6    3    7 1
     7    3    4 ar
     8    4    5 1
     9    4   12 ar
    10    5    6 2
    11    5    9 1
    12    6    7 1
    13    6   21 1
    14    7    8 1
    15    9   10 1
    16    9   22 1
    17    9   23 1
    18   10   11 1
    19   10   24 1
    20   10   25 1
    21   11   26 1
    22   11   27 1
    23   11   33 1
    24   12   18 1
    25   12   13 ar
    26   13   14 1
    27   14   15 2
    28   14   16 am
    29   16   17 1
    30   16   28 1
    31   17   18 1
    32   17   29 1
    33   17   30 1
    34   18   31 1
    35   18   32 1
@<TRIPOS>MOLECULE
CHEMBL372450
   48    52     0     0     0
SMALL
USER_CHARGES

@<TRIPOS>ATOM
      1 C1          0.8719    1.3907   -0.1205 C.ar      1 <0>        -0.0876
      2 C2          2.1311    1.9658   -0.2339 C.ar      1 <0>        -0.1116
      3 C3          3.2583    1.1788   -0.3235 C.ar      1 <0>        -0.0546
      4 C4          3.1274   -0.2091   -0.2992 C.ar      1 <0>        -0.1262
      5 C5          1.8441   -0.7905   -0.1833 C.ar      1 <0>        -0.0590
      6 C6          0.7199    0.0325   -0.0947 C.ar      1 <0>        -0.0979
      7 C7          1.7368   -2.2494   -0.1608 C.2       1 <0>         0.1371
      8 N1          2.8074   -2.9815   -0.2461 N.2       1 <0>        -0.2160
      9 N2          4.0862   -2.4358   -0.3612 N.am      1 <0>        -0.5338
     10 H1          4.8498   -3.0310   -0.4214 H         1 <0>         0.4367
     11 C8          4.2891   -1.1021   -0.3913 C.2       1 <0>         0.5279
     12 O1          5.4147   -0.6477   -0.4928 O.2       1 <0>        -0.5222
     13 C9          0.3847   -2.9035   -0.0383 C.3       1 <0>        -0.0172
     14 C10         0.5494   -4.4015   -0.0390 C.ar      1 <0>        -0.0572
     15 C11         0.5277   -5.0983   -1.2335 C.ar      1 <0>        -0.1154
     16 C12         0.6785   -6.4727   -1.2386 C.ar      1 <0>        -0.0965
     17 C13         0.8518   -7.1543   -0.0498 C.ar      1 <0>        -0.1166
     18 C14         0.8745   -6.4576    1.1514 C.ar      1 <0>         0.1482
     19 C15         0.7276   -5.0762    1.1525 C.ar      1 <0>        -0.1276
     20 N3          1.0498   -7.1446    2.3566 N.am      1 <0>        -0.6687
     21 C16         1.8220   -8.2485    2.3970 C.2       1 <0>         0.6074
     22 O2          2.4436   -8.5931    1.4082 O.2       1 <0>        -0.5037
     23 C17         1.9134   -9.0322    3.6279 C.2       1 <0>        -0.2439
     24 C18         2.6479  -10.1837    3.8763 C.2       1 <0>        -0.0537
     25 C19         2.5797  -10.7501    5.1172 C.2       1 <0>        -0.1755
     26 C20         1.7799  -10.1530    6.0799 C.2       1 <0>        -0.0474
     27 S1          1.1151   -8.7494    5.1995 S.3       1 <0>         0.1062
     28 C21         1.5425  -10.5690    7.4768 C.2       1 <0>        -0.0735
     29 C22         0.6904   -9.8390    8.3086 C.2       1 <0>        -0.1411
     30 C23         0.5401  -10.3033    9.5692 C.2       1 <0>        -0.1999
     31 S2          1.5865  -11.7453    9.5727 S.3       1 <0>         0.1979
     32 C24         2.1450  -11.6807    7.9899 C.2       1 <0>        -0.2182
     33 H2          0.0012    2.0255   -0.0473 H         1 <0>         0.1364
     34 H3          2.2276    3.0413   -0.2523 H         1 <0>         0.1372
     35 H4          4.2342    1.6327   -0.4121 H         1 <0>         0.1432
     36 H5         -0.2650   -0.4017   -0.0065 H         1 <0>         0.1419
     37 H6         -0.0874   -2.5903    0.8929 H         1 <0>         0.1057
     38 H7         -0.2403   -2.6063   -0.8804 H         1 <0>         0.1079
     39 H8          0.3923   -4.5677   -2.1644 H         1 <0>         0.1225
     40 H9          0.6603   -7.0139   -2.1730 H         1 <0>         0.1269
     41 H10         0.9691   -8.2279   -0.0543 H         1 <0>         0.1335
     42 H11         0.7485   -4.5311    2.0846 H         1 <0>         0.1235
     43 H12         0.6156   -6.8267    3.1637 H         1 <0>         0.4090
     44 H13         3.2608  -10.6233    3.1034 H         1 <0>         0.1487
     45 H14         3.1379  -11.6463    5.3443 H         1 <0>         0.1440
     46 H15         0.1798   -8.9520    7.9637 H         1 <0>         0.1416
     47 H16        -0.0615   -9.9017   10.3712 H         1 <0>         0.1920
     48 H17         2.8237  -12.3593    7.4947 H         1 <0>         0.1897
@<TRIPOS>BOND
     1    1    6 ar
     2    1    2 ar
     3    1   33 1
     4    2    3 ar
     5    2   34 1
     6    3    4 ar
     7    3   35 1
     8    4   11 1
     9    4    5 ar
    10    5    6 ar
    11    5    7 1
    12    6   36 1
    13    7    8 2
    14    7   13 1
    15    8    9 1
    16    9   10 1
    17    9   11 am
    18   11   12 2
    19   13   14 1
    20   13   37 1
    21   13   38 1
    22   14   19 ar
    23   14   15 ar
    24   15   16 ar
    25   15   39 1
    26   16   17 ar
    27   16   40 1
    28   17   18 ar
    29   17   41 1
    30   18   19 ar
    31   18   20 1
    32   19   42 1
    33   20   21 am
    34   20   43 1
    35   21   22 2
    36   21   23 1
    37   23   27 1
    38   23   24 2
    39   24   25 1
    40   24   44 1
    41   25   26 2
    42   25   45 1
    43   26   27 1
    44   26   28 1
    45   28   32 2
    46   28   29 1
    47   29   30 2
    48   29   46 1
    49   30   31 1
    50   30   47 1
    51   31   32 1
    52   32   48 1
@<TRIPOS>MOLECULE
CHEMBL596926
   47    50     0     0     0
SMALL
USER_CHARGES

@<TRIPOS>ATOM
      1 C1         -0.0166    1.3766    0.0096 C.ar      1 <0>        -0.0822
      2 C2          1.1707    2.0859    0.0021 C.ar      1 <0>        -0.1446
      3 C3          2.3799    1.4156   -0.0131 C.ar      1 <0>        -0.0647
      4 C4          2.4057    0.0346   -0.0212 C.ar      1 <0>        -0.1483
      5 C5          1.2153   -0.6806   -0.0137 C.ar      1 <0>         0.1902
      6 C6          0.0021   -0.0041    0.0020 C.ar      1 <0>        -0.1529
      7 N1          1.2378   -2.0787   -0.0224 N.am      1 <0>        -0.5616
      8 C7          0.0595   -2.9532   -0.0218 C.3       1 <0>         0.1368
      9 C8          0.5835   -4.3678   -0.0337 C.ar      1 <0>        -0.0883
     10 C9         -0.0326   -5.6013   -0.0380 C.ar      1 <0>        -0.0738
     11 C10         0.7260   -6.7594   -0.0485 C.ar      1 <0>        -0.0855
     12 C11         2.1068   -6.6891   -0.0548 C.ar      1 <0>        -0.0923
     13 C12         2.7438   -5.4516   -0.0511 C.ar      1 <0>        -0.0634
     14 C13         1.9734   -4.2736   -0.0403 C.ar      1 <0>        -0.1065
     15 C14         2.3425   -2.8446   -0.0385 C.2       1 <0>         0.5506
     16 O1          3.4818   -2.4211   -0.0474 O.2       1 <0>        -0.4510
     17 C15         4.2212   -5.3747   -0.0573 C.2       1 <0>         0.5432
     18 O2          4.7734   -4.2921   -0.0540 O.2       1 <0>        -0.4936
     19 N2          4.9547   -6.5054   -0.0667 N.am      1 <0>        -0.8510
     20 C16         3.6711    2.1926   -0.0212 C.3       1 <0>        -0.0560
     21 C17         3.7453    3.0756    1.2277 C.3       1 <0>        -0.1410
     22 C18         5.0203    3.9201    1.1737 C.3       1 <0>        -0.0073
     23 N3          5.0003    4.7666   -0.0253 N.4       1 <0>        -0.5052
     24 C19         5.0016    3.9259   -1.2286 C.3       1 <0>        -0.0073
     25 C20         3.7260    3.0816   -1.2669 C.3       1 <0>        -0.1411
     26 H1         -0.9594    1.9032    0.0260 H         1 <0>         0.1321
     27 H2          1.1533    3.1658    0.0077 H         1 <0>         0.1196
     28 H3          3.3505   -0.4884   -0.0338 H         1 <0>         0.1568
     29 H4         -0.9254   -0.5573    0.0083 H         1 <0>         0.1307
     30 H5         -0.5342   -2.7812    0.8760 H         1 <0>         0.1078
     31 H6         -0.5435   -2.7697   -0.9111 H         1 <0>         0.1076
     32 H7         -1.1108   -5.6643   -0.0327 H         1 <0>         0.1432
     33 H8          0.2369   -7.7223   -0.0515 H         1 <0>         0.1473
     34 H9          2.6924   -7.5965   -0.0623 H         1 <0>         0.1415
     35 H10         4.5140   -7.3694   -0.0693 H         1 <0>         0.4000
     36 H11         5.9234   -6.4550   -0.0708 H         1 <0>         0.4087
     37 H12         4.5130    1.5003   -0.0302 H         1 <0>         0.0986
     38 H13         2.8755    3.7315    1.2620 H         1 <0>         0.0915
     39 H14         3.7629    2.4465    2.1177 H         1 <0>         0.1142
     40 H15         5.0763    4.5498    2.0616 H         1 <0>         0.1345
     41 H16         5.8895    3.2632    1.1397 H         1 <0>         0.1318
     42 H17         4.1698    5.3395   -0.0175 H         1 <0>         0.4272
     43 H18         5.0439    4.5599   -2.1142 H         1 <0>         0.1345
     44 H19         5.8712    3.2689   -1.2113 H         1 <0>         0.1318
     45 H20         3.7297    2.4569   -2.1601 H         1 <0>         0.1142
     46 H21         2.8557    3.7377   -1.2845 H         1 <0>         0.0914
     47 H22         5.8161    5.3603   -0.0302 H         1 <0>         0.4317
@<TRIPOS>BOND
     1    1    6 ar
     2    1    2 ar
     3    1   26 1
     4    2    3 ar
     5    2   27 1
     6    3    4 ar
     7    3   20 1
     8    4    5 ar
     9    4   28 1
    10    5    6 ar
    11    5    7 1
    12    6   29 1
    13    7   15 am
    14    7    8 1
    15    8    9 1
    16    8   30 1
    17    8   31 1
    18    9   14 ar
    19    9   10 ar
    20   10   11 ar
    21   10   32 1
    22   11   12 ar
    23   11   33 1
    24   12   13 ar
    25   12   34 1
    26   13   14 ar
    27   13   17 1
    28   14   15 1
    29   15   16 2
    30   17   18 2
    31   17   19 am
    32   19   35 1
    33   19   36 1
    34   20   25 1
    35   20   21 1
    36   20   37 1
    37   21   22 1
    38   21   38 1
    39   21   39 1
    40   22   23 1
    41   22   40 1
    42   22   41 1
    43   23   24 1
    44   23   42 1
    45   23   47 1
    46   24   25 1
    47   24   43 1
    48   24   44 1
    49   25   45 1
    50   25   46 1
@<TRIPOS>MOLECULE
CHEMBL479937
   44    46     0     0     0
SMALL
USER_CHARGES

@<TRIPOS>ATOM
      1 C1         -0.0187    1.5258    0.0104 C.3       1 <0>        -0.1808
      2 C2          0.0021   -0.0041    0.0020 C.3       1 <0>         0.1519
      3 C3          0.7421   -0.5109    1.2415 C.3       1 <0>        -0.1805
      4 C4         -1.4117   -0.5257    0.0127 C.2       1 <0>         0.2378
      5 N1         -2.3276   -0.2740    0.9841 N.pl3     1 <0>        -0.5703
      6 H1         -2.1906    0.2639    1.7796 H         1 <0>         0.4320
      7 C5         -3.4911   -0.9275    0.6261 C.ar      1 <0>         0.0557
      8 C6         -4.7477   -1.0441    1.2025 C.ar      1 <0>        -0.0793
      9 C7         -5.7297   -1.7907    0.5814 C.ar      1 <0>        -0.0916
     10 C8         -5.4766   -2.4297   -0.6185 C.ar      1 <0>        -0.0755
     11 C9         -4.2243   -2.3288   -1.2188 C.ar      1 <0>        -0.0843
     12 C10        -3.2140   -1.5689   -0.5924 C.ar      1 <0>         0.1000
     13 N2         -1.9369   -1.2797   -0.9110 N.2       1 <0>        -0.4612
     14 C11        -3.9563   -3.0103   -2.4982 C.2       1 <0>         0.5622
     15 O1         -2.8608   -2.9188   -3.0181 O.2       1 <0>        -0.5238
     16 N3         -4.9255   -3.7348   -3.0917 N.am      1 <0>        -0.8482
     17 N4          0.6897   -0.4778   -1.2066 N.4       1 <0>        -0.3644
     18 C12         0.7010   -1.9455   -1.2177 C.3       1 <0>        -0.0258
     19 C13         1.3440   -2.4446   -2.5135 C.3       1 <0>        -0.1369
     20 C14         2.7806   -1.9208   -2.5987 C.3       1 <0>        -0.1395
     21 C15         2.7621   -0.3920   -2.5113 C.3       1 <0>        -0.1423
     22 C16         2.0665    0.0310   -1.2157 C.3       1 <0>        -0.0170
     23 H2          1.0039    1.9031    0.0027 H         1 <0>         0.1016
     24 H3         -0.5459    1.8868   -0.8726 H         1 <0>         0.0906
     25 H4         -0.5289    1.8773    0.9072 H         1 <0>         0.1047
     26 H5          0.2319   -0.1594    2.1383 H         1 <0>         0.1034
     27 H6          0.7568   -1.6008    1.2356 H         1 <0>         0.0911
     28 H7          1.7647   -0.1336    1.2338 H         1 <0>         0.1007
     29 H8         -4.9584   -0.5500    2.1394 H         1 <0>         0.1388
     30 H9         -6.7048   -1.8766    1.0376 H         1 <0>         0.1499
     31 H10        -6.2542   -3.0104   -1.0923 H         1 <0>         0.1439
     32 H11        -5.7994   -3.8078   -2.6770 H         1 <0>         0.4023
     33 H12        -4.7492   -4.1832   -3.9336 H         1 <0>         0.4105
     34 H13         1.2730   -2.3105   -0.3647 H         1 <0>         0.1193
     35 H14        -0.3219   -2.3168   -1.1538 H         1 <0>         0.1608
     36 H15         1.3531   -3.5346   -2.5190 H         1 <0>         0.1088
     37 H16         0.7726   -2.0804   -3.3672 H         1 <0>         0.0901
     38 H17         3.3658   -2.3260   -1.7732 H         1 <0>         0.0794
     39 H18         3.2244   -2.2264   -3.5462 H         1 <0>         0.0932
     40 H19         3.7847   -0.0148   -2.5153 H         1 <0>         0.1125
     41 H20         2.2200    0.0148   -3.3650 H         1 <0>         0.0882
     42 H21         2.0517    1.1189   -1.1502 H         1 <0>         0.1319
     43 H22         2.6094   -0.3761   -0.3627 H         1 <0>         0.1313
     44 H23         0.2023   -0.1410   -2.0234 H         1 <0>         0.4291
@<TRIPOS>BOND
     1    1    2 1
     2    1   23 1
     3    1   24 1
     4    1   25 1
     5    2    3 1
     6    2    4 1
     7    2   17 1
     8    3   26 1
     9    3   27 1
    10    3   28 1
    11    4   13 2
    12    4    5 1
    13    5    6 1
    14    5    7 1
    15    7   12 ar
    16    7    8 ar
    17    8    9 ar
    18    8   29 1
    19    9   10 ar
    20    9   30 1
    21   10   11 ar
    22   10   31 1
    23   11   12 ar
    24   11   14 1
    25   12   13 1
    26   14   15 2
    27   14   16 am
    28   16   32 1
    29   16   33 1
    30   17   22 1
    31   17   18 1
    32   17   44 1
    33   18   19 1
    34   18   34 1
    35   18   35 1
    36   19   20 1
    37   19   36 1
    38   19   37 1
    39   20   21 1
    40   20   38 1
    41   20   39 1
    42   21   22 1
    43   21   40 1
    44   21   41 1
    45   22   42 1
    46   22   43 1
@<TRIPOS>MOLECULE
CHEMBL479937__1
   43    45     0     0     0
SMALL
USER_CHARGES

@<TRIPOS>ATOM
      1 C1         -0.1355    1.4843    0.3287 C.3       1 <0>        -0.1859
      2 C2          0.0021   -0.0041    0.0020 C.3       1 <0>         0.1878
      3 C3          0.7704   -0.7038    1.1249 C.3       1 <0>        -0.1467
      4 C4         -1.3678   -0.6185   -0.1280 C.2       1 <0>         0.3002
      5 N1         -2.3494   -0.5390    0.8080 N.pl3     1 <0>        -0.5952
      6 H1         -2.2943   -0.0845    1.6632 H         1 <0>         0.4221
      7 C5         -3.4408   -1.2263    0.3130 C.ar      1 <0>         0.0345
      8 C6         -4.7138   -1.4912    0.7972 C.ar      1 <0>        -0.0796
      9 C7         -5.6039   -2.2294    0.0421 C.ar      1 <0>        -0.1155
     10 C8         -5.2418   -2.7127   -1.2019 C.ar      1 <0>        -0.0886
     11 C9         -3.9708   -2.4610   -1.7118 C.ar      1 <0>        -0.0890
     12 C10        -3.0537   -1.7083   -0.9482 C.ar      1 <0>         0.0994
     13 N2         -1.7867   -1.2994   -1.1568 N.2       1 <0>        -0.4359
     14 C11        -3.5866   -2.9766   -3.0382 C.2       1 <0>         0.5557
     15 O1         -2.4752   -2.7537   -3.4786 O.2       1 <0>        -0.5056
     16 N3         -4.4671   -3.6949   -3.7629 N.am      1 <0>        -0.8570
     17 N4          0.7318   -0.1623   -1.2631 N.3       1 <0>        -0.5044
     18 C12         2.1407    0.2222   -1.1096 C.3       1 <0>         0.0496
     19 C13         2.9001   -0.0917   -2.4006 C.3       1 <0>        -0.1154
     20 C14         2.2647    0.6792   -3.5611 C.3       1 <0>        -0.1223
     21 C15         0.7860    0.2967   -3.6687 C.3       1 <0>        -0.1127
     22 C16         0.0879    0.5993   -2.3409 C.3       1 <0>         0.0560
     23 H2          0.8553    1.9287    0.4227 H         1 <0>         0.0758
     24 H3         -0.6829    1.9828   -0.4713 H         1 <0>         0.0681
     25 H4         -0.6769    1.6017    1.2674 H         1 <0>         0.0620
     26 H5          0.2290   -0.5863    2.0636 H         1 <0>         0.0610
     27 H6          0.8684   -1.7641    0.8922 H         1 <0>         0.0748
     28 H7          1.7612   -0.2593    1.2190 H         1 <0>         0.0770
     29 H8         -5.0092   -1.1195    1.7672 H         1 <0>         0.1277
     30 H9         -6.5925   -2.4314    0.4271 H         1 <0>         0.1380
     31 H10        -5.9484   -3.2887   -1.7808 H         1 <0>         0.1336
     32 H11        -5.3536   -3.8727   -3.4116 H         1 <0>         0.3976
     33 H12        -4.2143   -4.0342   -4.6357 H         1 <0>         0.4046
     34 H13         2.2050    1.2901   -0.9009 H         1 <0>         0.0343
     35 H14         2.5817   -0.3362   -0.2839 H         1 <0>         0.0807
     36 H15         3.9423    0.2082   -2.2919 H         1 <0>         0.0657
     37 H16         2.8478   -1.1615   -2.6026 H         1 <0>         0.0731
     38 H17         2.3515    1.7502   -3.3778 H         1 <0>         0.0552
     39 H18         2.7752    0.4251   -4.4900 H         1 <0>         0.0629
     40 H19         0.3178    0.8740   -4.4659 H         1 <0>         0.0623
     41 H20         0.7005   -0.7671   -3.8906 H         1 <0>         0.0771
     42 H21        -0.9621    0.3148   -2.4094 H         1 <0>         0.0905
     43 H22         0.1618    1.6655   -2.1264 H         1 <0>         0.0267
@<TRIPOS>BOND
     1    1    2 1
     2    1   23 1
     3    1   24 1
     4    1   25 1
     5    2    3 1
     6    2    4 1
     7    2   17 1
     8    3   26 1
     9    3   27 1
    10    3   28 1
    11    4   13 2
    12    4    5 1
    13    5    6 1
    14    5    7 1
    15    7   12 ar
    16    7    8 ar
    17    8    9 ar
    18    8   29 1
    19    9   10 ar
    20    9   30 1
    21   10   11 ar
    22   10   31 1
    23   11   12 ar
    24   11   14 1
    25   12   13 1
    26   14   15 2
    27   14   16 am
    28   16   32 1
    29   16   33 1
    30   17   22 1
    31   17   18 1
    32   18   19 1
    33   18   34 1
    34   18   35 1
    35   19   20 1
    36   19   36 1
    37   19   37 1
    38   20   21 1
    39   20   38 1
    40   20   39 1
    41   21   22 1
    42   21   40 1
    43   21   41 1
    44   22   42 1
    45   22   43 1
@<TRIPOS>MOLECULE
CHEMBL551854
   43    46     0     0     0
SMALL
USER_CHARGES

@<TRIPOS>ATOM
      1 C1          0.1867    1.4076   -0.0149 C.3       1 <0>        -0.0535
      2 N1          0.1344   -0.0604   -0.0156 N.4       1 <0>        -0.3664
      3 C2         -1.2632   -0.4719   -0.1272 C.3       1 <0>        -0.0084
      4 C3         -1.3353   -1.8090   -0.8309 C.3       1 <0>        -0.1538
      5 C4         -1.3499   -2.9384    0.2152 C.3       1 <0>         0.0986
      6 N2         -0.4234   -2.6444    1.3271 N.am      1 <0>        -0.6206
      7 C5          0.8905   -2.0743    1.1112 C.3       1 <0>         0.0780
      8 C6          0.8034   -0.5308    1.1362 C.3       1 <0>        -0.0398
      9 C7         -0.8146   -2.9159    2.5879 C.2       1 <0>         0.6062
     10 O1         -1.9334   -3.3419    2.7987 O.2       1 <0>        -0.5026
     11 C8          0.1167   -2.6958    3.7143 C.2       1 <0>         0.0522
     12 C9         -0.1127   -3.0565    5.0497 C.2       1 <0>        -0.2758
     13 C10         0.9986   -2.6780    5.7842 C.2       1 <0>         0.3715
     14 N3          1.2743   -2.7994    7.0971 N.2       1 <0>        -0.6085
     15 C11         2.4023   -2.3725    7.6154 C.2       1 <0>         0.4762
     16 O2          2.6460   -2.5115    8.9395 O.3       1 <0>        -0.6377
     17 C12         3.3960   -1.7423    6.7367 C.ar      1 <0>        -0.1552
     18 C13         4.6139   -1.2685    7.2258 C.ar      1 <0>        -0.0323
     19 C14         5.5074   -0.6892    6.3677 C.ar      1 <0>        -0.1518
     20 C15         5.2140   -0.5681    5.0169 C.ar      1 <0>        -0.0823
     21 C16         4.0154   -1.0297    4.5133 C.ar      1 <0>        -0.1488
     22 C17         3.0957   -1.6215    5.3678 C.ar      1 <0>         0.1898
     23 N4          1.8801   -2.1008    4.9100 N.pl3     1 <0>        -0.3443
     24 N5          1.3082   -2.1310    3.6318 N.2       1 <0>        -0.3501
     25 H1          1.2266    1.7342   -0.0282 H         1 <0>         0.1235
     26 H2         -0.3254    1.7898   -0.8980 H         1 <0>         0.1220
     27 H3         -0.3022    1.7882    0.8819 H         1 <0>         0.1211
     28 H4         -1.6970   -0.5610    0.8688 H         1 <0>         0.1306
     29 H5         -1.8167    0.2715   -0.7008 H         1 <0>         0.1335
     30 H6         -2.2452   -1.8561   -1.4293 H         1 <0>         0.1220
     31 H7         -0.4672   -1.9256   -1.4796 H         1 <0>         0.0874
     32 H8         -2.3599   -3.0469    0.6104 H         1 <0>         0.1086
     33 H9         -1.0513   -3.8718   -0.2619 H         1 <0>         0.0845
     34 H10         1.5655   -2.4115    1.8978 H         1 <0>         0.1665
     35 H11         1.2722   -2.3999    0.1435 H         1 <0>         0.0904
     36 H12         1.8096   -0.1127    1.1653 H         1 <0>         0.1426
     37 H13         0.2577   -0.2144    2.0251 H         1 <0>         0.1309
     38 H14        -0.9968   -3.5418    5.4359 H         1 <0>         0.1533
     39 H15         4.8494   -1.3584    8.2760 H         1 <0>         0.1433
     40 H16         6.4504   -0.3222    6.7451 H         1 <0>         0.1285
     41 H17         5.9309   -0.1077    4.3533 H         1 <0>         0.1273
     42 H18         3.7942   -0.9311    3.4608 H         1 <0>         0.1278
     43 H19         0.6283   -0.3948   -0.8294 H         1 <0>         0.4155
@<TRIPOS>BOND
     1    1    2 1
     2    1   25 1
     3    1   26 1
     4    1   27 1
     5    2    8 1
     6    2    3 1
     7    2   43 1
     8    3    4 1
     9    3   28 1
    10    3   29 1
    11    4    5 1
    12    4   30 1
    13    4   31 1
    14    5    6 1
    15    5   32 1
    16    5   33 1
    17    6    7 1
    18    6    9 am
    19    7    8 1
    20    7   34 1
    21    7   35 1
    22    8   36 1
    23    8   37 1
    24    9   10 2
    25    9   11 1
    26   11   24 2
    27   11   12 1
    28   12   13 2
    29   12   38 1
    30   13   23 1
    31   13   14 1
    32   14   15 2
    33   15   16 1
    34   15   17 1
    35   17   22 ar
    36   17   18 ar
    37   18   19 ar
    38   18   39 1
    39   19   20 ar
    40   19   40 1
    41   20   21 ar
    42   20   41 1
    43   21   22 ar
    44   21   42 1
    45   22   23 1
    46   23   24 1
@<TRIPOS>MOLECULE
CHEMBL246548
   53    59     0     0     0
SMALL
USER_CHARGES

@<TRIPOS>ATOM
      1 C1         -0.0169    1.3927    0.0097 C.ar      1 <0>        -0.0552
      2 C2          1.1598    2.1069    0.0023 C.ar      1 <0>        -0.1416
      3 C3          2.3829    1.4423   -0.0133 C.ar      1 <0>         0.1544
      4 C4          2.4066    0.0379   -0.0216 C.ar      1 <0>        -0.1124
      5 C5          1.2151   -0.6819   -0.0140 C.ar      1 <0>        -0.0109
      6 C6          0.0021   -0.0041    0.0020 C.ar      1 <0>        -0.0573
      7 C7         -1.2726   -0.7637    0.0115 C.2       1 <0>         0.1122
      8 C8         -2.4858   -0.1361   -0.0790 C.2       1 <0>        -0.2194
      9 S1         -3.5881   -1.5393   -0.0158 S.3       1 <0>         0.1387
     10 C9         -2.4239   -2.7470    0.1156 C.2       1 <0>         0.0302
     11 N1         -1.2959   -2.0857    0.1024 N.2       1 <0>        -0.4850
     12 C10        -2.6314   -4.2362    0.2182 C.3       1 <0>         0.2128
     13 N2         -2.7491   -4.6168    1.6279 N.am      1 <0>        -0.7231
     14 C11        -2.9406   -5.9080    1.9636 C.2       1 <0>         0.5483
     15 O1         -3.0155   -6.7548    1.0985 O.2       1 <0>        -0.5340
     16 C12        -3.0616   -6.2996    3.4138 C.3       1 <0>        -0.1974
     17 C13        -1.9257   -7.1266    4.0194 C.3       1 <0>        -0.1513
     18 C14        -3.2781   -7.7809    3.7298 C.3       1 <0>        -0.1454
     19 C15         3.8255   -0.3556   -0.0383 C.ar      1 <0>        -0.0311
     20 C16         4.4870   -1.5833   -0.0531 C.ar      1 <0>        -0.0833
     21 C17         5.8936   -1.6131   -0.0668 C.ar      1 <0>        -0.1575
     22 C18         6.6219   -0.4251   -0.0647 C.ar      1 <0>         0.0104
     23 C19         5.9651    0.7899   -0.0497 C.ar      1 <0>        -0.1027
     24 C20         4.5708    0.8389   -0.0375 C.ar      1 <0>         0.1826
     25 N3          3.6889    1.9005   -0.0227 N.pl3     1 <0>        -0.6069
     26 H1          3.9477    2.8353   -0.0194 H         1 <0>         0.4244
     27 C21         6.9757    1.9181   -0.0500 C.3       1 <0>        -0.0800
     28 C22         8.3087    1.2669    0.3748 C.3       1 <0>        -0.1191
     29 C23         8.1195   -0.1964   -0.0768 C.3       1 <0>        -0.0875
     30 C24         6.2679   -3.0412   -0.0807 C.2       1 <0>         0.5820
     31 O2          7.4017   -3.4771   -0.0945 O.2       1 <0>        -0.4626
     32 N4          5.1430   -3.7787   -0.0751 N.am      1 <0>        -0.6812
     33 C25         4.0512   -2.9929   -0.0587 C.2       1 <0>         0.5766
     34 O3          2.8995   -3.3792   -0.0500 O.2       1 <0>        -0.4496
     35 H2         -0.9615    1.9160    0.0261 H         1 <0>         0.1358
     36 H3          1.1340    3.1866    0.0082 H         1 <0>         0.1340
     37 H4          1.2333   -1.7617   -0.0202 H         1 <0>         0.1524
     38 H5         -2.7133    0.9162   -0.1645 H         1 <0>         0.2009
     39 H6         -3.5436   -4.5131   -0.3103 H         1 <0>         0.0977
     40 H7         -1.7818   -4.7530   -0.2281 H         1 <0>         0.1035
     41 H8         -2.6892   -3.9396    2.3198 H         1 <0>         0.4049
     42 H9         -3.5527   -5.5705    4.0582 H         1 <0>         0.1252
     43 H10        -1.0909   -7.3874    3.3689 H         1 <0>         0.1007
     44 H11        -1.6692   -6.9415    5.0625 H         1 <0>         0.1060
     45 H12        -3.9113   -8.0263    4.5824 H         1 <0>         0.1050
     46 H13        -3.3329   -8.4722    2.8888 H         1 <0>         0.1093
     47 H14         7.0651    2.3455   -1.0487 H         1 <0>         0.0876
     48 H15         6.6850    2.6864    0.6664 H         1 <0>         0.0787
     49 H16         9.1483    1.7277   -0.1455 H         1 <0>         0.0856
     50 H17         8.4416    1.3251    1.4551 H         1 <0>         0.0784
     51 H18         8.6111   -0.8741    0.6211 H         1 <0>         0.0906
     52 H19         8.5152   -0.3359   -1.0828 H         1 <0>         0.0942
     53 H20         5.1218   -4.7485   -0.0823 H         1 <0>         0.4310
@<TRIPOS>BOND
     1    1    6 ar
     2    1    2 ar
     3    1   35 1
     4    2    3 ar
     5    2   36 1
     6    3   25 1
     7    3    4 ar
     8    4    5 ar
     9    4   19 1
    10    5    6 ar
    11    5   37 1
    12    6    7 1
    13    7   11 1
    14    7    8 2
    15    8    9 1
    16    8   38 1
    17    9   10 1
    18   10   11 2
    19   10   12 1
    20   12   13 1
    21   12   39 1
    22   12   40 1
    23   13   14 am
    24   13   41 1
    25   14   15 2
    26   14   16 1
    27   16   18 1
    28   16   17 1
    29   16   42 1
    30   17   18 1
    31   17   43 1
    32   17   44 1
    33   18   45 1
    34   18   46 1
    35   19   24 ar
    36   19   20 ar
    37   20   33 1
    38   20   21 ar
    39   21   22 ar
    40   21   30 1
    41   22   29 1
    42   22   23 ar
    43   23   24 ar
    44   23   27 1
    45   24   25 1
    46   25   26 1
    47   27   28 1
    48   27   47 1
    49   27   48 1
    50   28   29 1
    51   28   49 1
    52   28   50 1
    53   29   51 1
    54   29   52 1
    55   30   31 2
    56   30   32 am
    57   32   33 am
    58   32   53 1
    59   33   34 2
@<TRIPOS>MOLECULE
CHEMBL246750
   59    65     0     0     0
SMALL
USER_CHARGES

@<TRIPOS>ATOM
      1 C1         -0.0169    1.3927    0.0097 C.ar      1 <0>        -0.0553
      2 C2          1.1598    2.1069    0.0023 C.ar      1 <0>        -0.1416
      3 C3          2.3829    1.4423   -0.0133 C.ar      1 <0>         0.1543
      4 C4          2.4066    0.0379   -0.0216 C.ar      1 <0>        -0.1124
      5 C5          1.2151   -0.6819   -0.0140 C.ar      1 <0>        -0.0110
      6 C6          0.0021   -0.0041    0.0020 C.ar      1 <0>        -0.0572
      7 C7         -1.2726   -0.7637    0.0115 C.2       1 <0>         0.1123
      8 C8         -2.4858   -0.1361   -0.0790 C.2       1 <0>        -0.2196
      9 S1         -3.5881   -1.5393   -0.0158 S.3       1 <0>         0.1376
     10 C9         -2.4239   -2.7470    0.1156 C.2       1 <0>         0.0308
     11 N1         -1.2959   -2.0857    0.1024 N.2       1 <0>        -0.4851
     12 C10        -2.6314   -4.2362    0.2182 C.3       1 <0>         0.2120
     13 N2         -2.7491   -4.6168    1.6279 N.am      1 <0>        -0.7264
     14 C11        -2.9406   -5.9080    1.9636 C.2       1 <0>         0.5241
     15 O1         -3.0155   -6.7548    1.0985 O.2       1 <0>        -0.5316
     16 C12        -3.0616   -6.2996    3.4138 C.3       1 <0>        -0.1116
     17 C13        -1.7499   -5.9780    4.1592 C.3       1 <0>        -0.1164
     18 C14        -1.5860   -7.1474    5.1615 C.3       1 <0>        -0.1242
     19 C15        -2.0841   -8.3675    4.3476 C.3       1 <0>        -0.1253
     20 C16        -3.2741   -7.8189    3.5335 C.3       1 <0>        -0.1197
     21 C17         3.8255   -0.3556   -0.0383 C.ar      1 <0>        -0.0311
     22 C18         4.4870   -1.5833   -0.0531 C.ar      1 <0>        -0.0833
     23 C19         5.8936   -1.6131   -0.0668 C.ar      1 <0>        -0.1575
     24 C20         6.6219   -0.4251   -0.0647 C.ar      1 <0>         0.0105
     25 C21         5.9651    0.7899   -0.0497 C.ar      1 <0>        -0.1027
     26 C22         4.5708    0.8389   -0.0375 C.ar      1 <0>         0.1826
     27 N3          3.6889    1.9005   -0.0227 N.pl3     1 <0>        -0.6069
     28 H1          3.9477    2.8353   -0.0194 H         1 <0>         0.4244
     29 C23         6.9757    1.9181   -0.0500 C.3       1 <0>        -0.0800
     30 C24         8.3087    1.2669    0.3748 C.3       1 <0>        -0.1191
     31 C25         8.1195   -0.1964   -0.0768 C.3       1 <0>        -0.0875
     32 C26         6.2679   -3.0412   -0.0807 C.2       1 <0>         0.5819
     33 O2          7.4017   -3.4771   -0.0945 O.2       1 <0>        -0.4625
     34 N4          5.1430   -3.7787   -0.0751 N.am      1 <0>        -0.6813
     35 C27         4.0512   -2.9929   -0.0587 C.2       1 <0>         0.5766
     36 O3          2.8995   -3.3792   -0.0500 O.2       1 <0>        -0.4496
     37 H2         -0.9615    1.9160    0.0261 H         1 <0>         0.1357
     38 H3          1.1340    3.1866    0.0082 H         1 <0>         0.1340
     39 H4          1.2333   -1.7617   -0.0202 H         1 <0>         0.1524
     40 H5         -2.7133    0.9162   -0.1645 H         1 <0>         0.2007
     41 H6         -3.5436   -4.5131   -0.3103 H         1 <0>         0.0971
     42 H7         -1.7818   -4.7530   -0.2281 H         1 <0>         0.1031
     43 H8         -2.6892   -3.9396    2.3198 H         1 <0>         0.4039
     44 H9         -3.8941   -5.7687    3.8754 H         1 <0>         0.1001
     45 H10        -0.9118   -5.9522    3.4628 H         1 <0>         0.0715
     46 H11        -1.8354   -5.0298    4.6900 H         1 <0>         0.0726
     47 H12        -0.5403   -7.2715    5.4427 H         1 <0>         0.0695
     48 H13        -2.2082   -6.9910    6.0428 H         1 <0>         0.0702
     49 H14        -1.2999   -8.7276    3.6816 H         1 <0>         0.0669
     50 H15        -2.4134   -9.1632    5.0158 H         1 <0>         0.0683
     51 H16        -4.2093   -8.0253    4.0540 H         1 <0>         0.0689
     52 H17        -3.2896   -8.2730    2.5427 H         1 <0>         0.0904
     53 H18         7.0651    2.3455   -1.0487 H         1 <0>         0.0876
     54 H19         6.6850    2.6864    0.6664 H         1 <0>         0.0787
     55 H20         9.1483    1.7277   -0.1455 H         1 <0>         0.0856
     56 H21         8.4416    1.3251    1.4551 H         1 <0>         0.0784
     57 H22         8.6111   -0.8741    0.6211 H         1 <0>         0.0906
     58 H23         8.5152   -0.3359   -1.0828 H         1 <0>         0.0942
     59 H24         5.1218   -4.7485   -0.0823 H         1 <0>         0.4310
@<TRIPOS>BOND
     1    1    6 ar
     2    1    2 ar
     3    1   37 1
     4    2    3 ar
     5    2   38 1
     6    3   27 1
     7    3    4 ar
     8    4    5 ar
     9    4   21 1
    10    5    6 ar
    11    5   39 1
    12    6    7 1
    13    7   11 1
    14    7    8 2
    15    8    9 1
    16    8   40 1
    17    9   10 1
    18   10   11 2
    19   10   12 1
    20   12   13 1
    21   12   41 1
    22   12   42 1
    23   13   14 am
    24   13   43 1
    25   14   15 2
    26   14   16 1
    27   16   20 1
    28   16   17 1
    29   16   44 1
    30   17   18 1
    31   17   45 1
    32   17   46 1
    33   18   19 1
    34   18   47 1
    35   18   48 1
    36   19   20 1
    37   19   49 1
    38   19   50 1
    39   20   51 1
    40   20   52 1
    41   21   26 ar
    42   21   22 ar
    43   22   35 1
    44   22   23 ar
    45   23   24 ar
    46   23   32 1
    47   24   31 1
    48   24   25 ar
    49   25   26 ar
    50   25   29 1
    51   26   27 1
    52   27   28 1
    53   29   30 1
    54   29   53 1
    55   29   54 1
    56   30   31 1
    57   30   55 1
    58   30   56 1
    59   31   57 1
    60   31   58 1
    61   32   33 2
    62   32   34 am
    63   34   35 am
    64   34   59 1
    65   35   36 2
@<TRIPOS>MOLECULE
CHEMBL570304
   32    34     0     0     0
SMALL
USER_CHARGES

@<TRIPOS>ATOM
      1 C1         -0.0178    1.4648    0.0101 C.3       1 <0>        -0.0511
      2 N1          0.0021   -0.0041    0.0020 N.4       1 <0>        -0.3865
      3 C2          0.7126   -0.4907    1.1921 C.3       1 <0>        -0.0454
      4 C3         -1.3761   -0.5125    0.0124 C.3       1 <0>         0.0505
      5 C4         -2.0674   -0.1162   -1.2666 C.ar      1 <0>        -0.1362
      6 C5         -2.7515    1.0889   -1.3350 C.ar      1 <0>        -0.1713
      7 C6         -3.3883    1.4649   -2.4985 C.ar      1 <0>        -0.0786
      8 C7         -3.3479    0.6354   -3.6126 C.ar      1 <0>         0.0200
      9 C8         -2.6568   -0.5859   -3.5492 C.ar      1 <0>         0.2092
     10 C9         -2.0111   -0.9490   -2.3598 C.ar      1 <0>        -0.1116
     11 N2         -2.6066   -1.4099   -4.6264 N.2       1 <0>        -0.6224
     12 C10        -3.1971   -1.0953   -5.7540 C.2       1 <0>         0.5089
     13 O1         -3.1294   -1.9383   -6.8118 O.3       1 <0>        -0.6067
     14 C11        -3.9305    0.1676   -5.8698 C.2       1 <0>         0.1582
     15 N3         -3.9854    1.0052   -4.7857 N.pl3     1 <0>        -0.3729
     16 C12        -4.7156    2.0917   -5.1544 C.2       1 <0>        -0.0670
     17 C13        -5.0891    1.9010   -6.4424 C.2       1 <0>        -0.0119
     18 N4         -4.6038    0.7294   -6.8550 N.2       1 <0>        -0.4400
     19 H1          1.0047    1.8421    0.0024 H         1 <0>         0.1176
     20 H2         -0.5450    1.8259   -0.8730 H         1 <0>         0.1289
     21 H3         -0.5280    1.8163    0.9069 H         1 <0>         0.1178
     22 H4          0.2024   -0.1392    2.0889 H         1 <0>         0.1186
     23 H5          0.7273   -1.5806    1.1861 H         1 <0>         0.1216
     24 H6          1.7352   -0.1134    1.1844 H         1 <0>         0.1198
     25 H7         -1.3618   -1.5992    0.0961 H         1 <0>         0.1335
     26 H8         -1.9129   -0.0898    0.8617 H         1 <0>         0.1306
     27 H9         -2.7857    1.7363   -0.4713 H         1 <0>         0.1221
     28 H10        -3.9191    2.4043   -2.5440 H         1 <0>         0.1240
     29 H11        -1.4732   -1.8836   -2.3003 H         1 <0>         0.1354
     30 H12        -4.9531    2.9452   -4.5368 H         1 <0>         0.1771
     31 H13        -5.6817    2.5823   -7.0349 H         1 <0>         0.1793
     32 H14         0.4743   -0.3295   -0.8281 H         1 <0>         0.4284
@<TRIPOS>BOND
     1    1    2 1
     2    1   19 1
     3    1   20 1
     4    1   21 1
     5    2    3 1
     6    2    4 1
     7    2   32 1
     8    3   22 1
     9    3   23 1
    10    3   24 1
    11    4    5 1
    12    4   25 1
    13    4   26 1
    14    5   10 ar
    15    5    6 ar
    16    6    7 ar
    17    6   27 1
    18    7    8 ar
    19    7   28 1
    20    8   15 1
    21    8    9 ar
    22    9   10 ar
    23    9   11 1
    24   10   29 1
    25   11   12 2
    26   12   13 1
    27   12   14 1
    28   14   18 2
    29   14   15 1
    30   15   16 1
    31   16   17 2
    32   16   30 1
    33   17   18 1
    34   17   31 1
@<TRIPOS>MOLECULE
CHEMBL570304__1
   33    35     0     0     0
SMALL
USER_CHARGES

@<TRIPOS>ATOM
      1 C1         -0.0178    1.4648    0.0101 C.3       1 <0>        -0.0553
      2 N1          0.0021   -0.0041    0.0020 N.4       1 <0>        -0.3870
      3 C2         -1.3761   -0.5125    0.0124 C.3       1 <0>        -0.0480
      4 C3          0.6897   -0.4778   -1.2066 C.3       1 <0>         0.0435
      5 C4          2.1367   -0.0597   -1.1578 C.ar      1 <0>        -0.1279
      6 C5          2.5206    1.1592   -1.6901 C.ar      1 <0>        -0.0983
      7 C6          3.8440    1.5488   -1.6495 C.ar      1 <0>        -0.0862
      8 C7          4.7960    0.7173   -1.0730 C.ar      1 <0>         0.1200
      9 C8          4.4098   -0.5111   -0.5359 C.ar      1 <0>         0.1667
     10 C9          3.0731   -0.8909   -0.5778 C.ar      1 <0>        -0.1093
     11 N2          5.3517   -1.3569    0.0458 N.am      1 <0>        -0.6462
     12 H1          5.0709   -2.2086    0.4155 H         1 <0>         0.4319
     13 C10         6.6506   -1.0002    0.0982 C.2       1 <0>         0.6001
     14 O1          7.4697   -1.7424    0.6070 O.2       1 <0>        -0.4588
     15 C11         7.0713    0.2930   -0.4646 C.2       1 <0>         0.1386
     16 N3          6.1330    1.1122   -1.0332 N.pl3     1 <0>        -0.3927
     17 C12         6.7823    2.2236   -1.4669 C.2       1 <0>        -0.0126
     18 C13         8.0934    2.0635   -1.1582 C.2       1 <0>         0.0042
     19 N4          8.2430    0.8874   -0.5524 N.2       1 <0>        -0.3938
     20 H2          1.0047    1.8421    0.0024 H         1 <0>         0.1231
     21 H3         -0.5450    1.8259   -0.8730 H         1 <0>         0.1246
     22 H4         -0.5280    1.8163    0.9069 H         1 <0>         0.1259
     23 H5         -1.9033   -0.1515   -0.8706 H         1 <0>         0.1241
     24 H6         -1.3613   -1.6024    0.0065 H         1 <0>         0.1249
     25 H7         -1.8863   -0.1610    0.9092 H         1 <0>         0.1262
     26 H8          0.6270   -1.5648   -1.2578 H         1 <0>         0.1420
     27 H9          0.2158   -0.0447   -2.0875 H         1 <0>         0.1426
     28 H10         1.7823    1.8073   -2.1387 H         1 <0>         0.1483
     29 H11         4.1397    2.5002   -2.0664 H         1 <0>         0.1530
     30 H12         2.7681   -1.8389   -0.1599 H         1 <0>         0.1526
     31 H13         6.3387    3.0736   -1.9640 H         1 <0>         0.1976
     32 H14         8.8824    2.7703   -1.3686 H         1 <0>         0.1990
     33 H15         0.4901   -0.3383    0.8195 H         1 <0>         0.4272
@<TRIPOS>BOND
     1    1    2 1
     2    1   20 1
     3    1   21 1
     4    1   22 1
     5    2    3 1
     6    2    4 1
     7    2   33 1
     8    3   23 1
     9    3   24 1
    10    3   25 1
    11    4    5 1
    12    4   26 1
    13    4   27 1
    14    5   10 ar
    15    5    6 ar
    16    6    7 ar
    17    6   28 1
    18    7    8 ar
    19    7   29 1
    20    8   16 1
    21    8    9 ar
    22    9   10 ar
    23    9   11 1
    24   10   30 1
    25   11   12 1
    26   11   13 am
    27   13   14 2
    28   13   15 1
    29   15   19 2
    30   15   16 1
    31   16   17 1
    32   17   18 2
    33   17   31 1
    34   18   19 1
    35   18   32 1
@<TRIPOS>MOLECULE
CHEMBL555752
   38    41     0     0     0
SMALL
USER_CHARGES

@<TRIPOS>ATOM
      1 C1         -0.0163    1.3512    0.0095 C.2       1 <0>        -0.1802
      2 C2          1.3081    1.7995   -0.0008 C.2       1 <0>        -0.0730
      3 C3          2.1126    0.6813   -0.0144 C.2       1 <0>        -0.0732
      4 C4          3.5658    0.5029   -0.0288 C.2       1 <0>         0.5842
      5 O1          4.3019    1.4727   -0.0304 O.2       1 <0>        -0.4848
      6 N1          4.0837   -0.7415   -0.0400 N.am      1 <0>        -0.6538
      7 H1          5.0461   -0.8624   -0.0495 H         1 <0>         0.4278
      8 C5          3.2458   -1.8567   -0.0374 C.ar      1 <0>         0.1915
      9 C6          3.7976   -3.1323   -0.0485 C.ar      1 <0>        -0.1308
     10 C7          2.9753   -4.2410   -0.0461 C.ar      1 <0>        -0.0628
     11 C8          1.5997   -4.0887   -0.0323 C.ar      1 <0>        -0.1665
     12 C9          1.0413   -2.8259   -0.0213 C.ar      1 <0>        -0.0762
     13 C10         1.8600   -1.7046   -0.0235 C.ar      1 <0>         0.1000
     14 N2          1.2908   -0.4267   -0.0125 N.pl3     1 <0>        -0.3838
     15 C11         0.0021   -0.0041    0.0020 C.2       1 <0>         0.0267
     16 C12         0.7091   -5.3043   -0.0299 C.3       1 <0>         0.0537
     17 N3          0.4328   -5.7061    1.3558 N.4       1 <0>        -0.3941
     18 C13        -0.4259   -4.6932    2.0213 C.3       1 <0>        -0.0075
     19 C14        -1.0694   -5.4849    3.1873 C.3       1 <0>        -0.1452
     20 C15        -1.3171   -6.8778    2.5641 C.3       1 <0>        -0.1452
     21 C16        -0.3406   -6.9667    1.3767 C.3       1 <0>        -0.0090
     22 H2         -0.8981    1.9747    0.0252 H         1 <0>         0.1629
     23 H3          1.6379    2.8279    0.0013 H         1 <0>         0.1621
     24 H4          4.8704   -3.2562   -0.0593 H         1 <0>         0.1539
     25 H5          3.4068   -5.2310   -0.0555 H         1 <0>         0.1460
     26 H6         -0.0325   -2.7104   -0.0112 H         1 <0>         0.1437
     27 H7         -0.8682   -0.6436    0.0066 H         1 <0>         0.1762
     28 H8         -0.2284   -5.0688   -0.5337 H         1 <0>         0.1365
     29 H9          1.2073   -6.1208   -0.5525 H         1 <0>         0.1409
     30 H10         0.1767   -3.8687    2.4025 H         1 <0>         0.1321
     31 H11        -1.1908   -4.3274    1.3363 H         1 <0>         0.1322
     32 H12        -0.3825   -5.5563    4.0305 H         1 <0>         0.0978
     33 H13        -2.0099   -5.0261    3.4923 H         1 <0>         0.1166
     34 H14        -1.1015   -7.6612    3.2907 H         1 <0>         0.1053
     35 H15        -2.3463   -6.9582    2.2143 H         1 <0>         0.1041
     36 H16        -0.8969   -7.0765    0.4458 H         1 <0>         0.1319
     37 H17         0.3327   -7.8131    1.5121 H         1 <0>         0.1332
     38 H18         1.2968   -5.8195    1.8644 H         1 <0>         0.4269
@<TRIPOS>BOND
     1    1   15 2
     2    1    2 1
     3    1   22 1
     4    2    3 2
     5    2   23 1
     6    3   14 1
     7    3    4 1
     8    4    5 2
     9    4    6 am
    10    6    7 1
    11    6    8 1
    12    8   13 ar
    13    8    9 ar
    14    9   10 ar
    15    9   24 1
    16   10   11 ar
    17   10   25 1
    18   11   12 ar
    19   11   16 1
    20   12   13 ar
    21   12   26 1
    22   13   14 1
    23   14   15 1
    24   15   27 1
    25   16   17 1
    26   16   28 1
    27   16   29 1
    28   17   21 1
    29   17   18 1
    30   17   38 1
    31   18   19 1
    32   18   30 1
    33   18   31 1
    34   19   20 1
    35   19   32 1
    36   19   33 1
    37   20   21 1
    38   20   34 1
    39   20   35 1
    40   21   36 1
    41   21   37 1
@<TRIPOS>MOLECULE
CHEMBL481081
   34    35     0     0     0
SMALL
USER_CHARGES

@<TRIPOS>ATOM
      1 C1         -0.0187    1.5258    0.0104 C.3       1 <0>        -0.1810
      2 C2          0.0021   -0.0041    0.0020 C.3       1 <0>         0.1548
      3 C3          0.7421   -0.5109    1.2415 C.3       1 <0>        -0.1810
      4 C4         -1.4117   -0.5257    0.0127 C.2       1 <0>         0.2285
      5 N1         -2.3276   -0.2740    0.9841 N.pl3     1 <0>        -0.5714
      6 H1         -2.1906    0.2639    1.7796 H         1 <0>         0.4317
      7 C5         -3.4911   -0.9275    0.6261 C.ar      1 <0>         0.0566
      8 C6         -4.7477   -1.0441    1.2025 C.ar      1 <0>        -0.0805
      9 C7         -5.7297   -1.7907    0.5814 C.ar      1 <0>        -0.0905
     10 C8         -5.4766   -2.4297   -0.6185 C.ar      1 <0>        -0.0758
     11 C9         -4.2243   -2.3288   -1.2188 C.ar      1 <0>        -0.0833
     12 C10        -3.2140   -1.5689   -0.5924 C.ar      1 <0>         0.1010
     13 N2         -1.9369   -1.2797   -0.9110 N.2       1 <0>        -0.4619
     14 C11        -3.9563   -3.0103   -2.4982 C.2       1 <0>         0.5621
     15 O1         -2.8608   -2.9188   -3.0181 O.2       1 <0>        -0.5245
     16 N3         -4.9255   -3.7348   -3.0917 N.am      1 <0>        -0.8480
     17 N4          0.6897   -0.4778   -1.2066 N.4       1 <0>        -0.4945
     18 C12         2.0678    0.0307   -1.2170 C.3       1 <0>        -0.0568
     19 H2          1.0039    1.9031    0.0027 H         1 <0>         0.1025
     20 H3         -0.5459    1.8868   -0.8726 H         1 <0>         0.0914
     21 H4         -0.5289    1.8773    0.9072 H         1 <0>         0.1049
     22 H5          0.2319   -0.1594    2.1383 H         1 <0>         0.1050
     23 H6          0.7568   -1.6008    1.2356 H         1 <0>         0.0915
     24 H7          1.7647   -0.1336    1.2338 H         1 <0>         0.1025
     25 H8         -4.9584   -0.5500    2.1394 H         1 <0>         0.1391
     26 H9         -6.7048   -1.8766    1.0376 H         1 <0>         0.1504
     27 H10        -6.2542   -3.0104   -1.0923 H         1 <0>         0.1443
     28 H11        -5.7994   -3.8078   -2.6770 H         1 <0>         0.4025
     29 H12        -4.7492   -4.1832   -3.9336 H         1 <0>         0.4108
     30 H13         0.7033   -1.4867   -1.2121 H         1 <0>         0.4391
     31 H14         2.5950   -0.3304   -0.3340 H         1 <0>         0.1281
     32 H15         2.5780   -0.3209   -2.1138 H         1 <0>         0.1351
     33 H16         2.0530    1.1205   -1.2110 H         1 <0>         0.1281
     34 H17         0.2017   -0.1436   -2.0240 H         1 <0>         0.4391
@<TRIPOS>BOND
     1    1    2 1
     2    1   19 1
     3    1   20 1
     4    1   21 1
     5    2    3 1
     6    2    4 1
     7    2   17 1
     8    3   22 1
     9    3   23 1
    10    3   24 1
    11    4   13 2
    12    4    5 1
    13    5    6 1
    14    5    7 1
    15    7   12 ar
    16    7    8 ar
    17    8    9 ar
    18    8   25 1
    19    9   10 ar
    20    9   26 1
    21   10   11 ar
    22   10   27 1
    23   11   12 ar
    24   11   14 1
    25   12   13 1
    26   14   15 2
    27   14   16 am
    28   16   28 1
    29   16   29 1
    30   17   18 1
    31   17   30 1
    32   17   34 1
    33   18   31 1
    34   18   32 1
    35   18   33 1
@<TRIPOS>MOLECULE
CHEMBL364752
   45    48     0     0     0
SMALL
USER_CHARGES

@<TRIPOS>ATOM
      1 C1         -4.7454    1.4867   -1.1916 C.3       1 <0>        -0.0475
      2 N1         -4.6383    0.0383   -1.4124 N.4       1 <0>        -0.3733
      3 C2         -4.4173   -0.2242   -2.8408 C.3       1 <0>        -0.0610
      4 C3         -3.5097   -0.4932   -0.6366 C.3       1 <0>        -0.0302
      5 C4         -3.4743   -1.9942   -0.7653 C.2       1 <0>         0.5001
      6 O1         -4.3072   -2.5651   -1.4371 O.2       1 <0>        -0.5073
      7 N2         -2.5171   -2.7023   -0.1337 N.am      1 <0>        -0.6430
      8 C5         -2.5481   -4.0988   -0.1618 C.ar      1 <0>         0.1344
      9 C6         -1.3594   -4.8208   -0.1662 C.ar      1 <0>        -0.1283
     10 C7         -1.3837   -6.1973   -0.1938 C.ar      1 <0>        -0.0687
     11 C8         -2.6083   -6.8737   -0.2171 C.ar      1 <0>        -0.0658
     12 C9         -3.7957   -6.1420   -0.2120 C.ar      1 <0>        -0.0540
     13 C10        -3.7680   -4.7674   -0.1796 C.ar      1 <0>        -0.0936
     14 C11        -4.9241   -7.1423   -0.2410 C.3       1 <0>        -0.0312
     15 C12        -4.2643   -8.5016   -0.2628 C.2       1 <0>        -0.1514
     16 C13        -2.9206   -8.3215   -0.2484 C.2       1 <0>         0.1624
     17 N3         -2.0564   -9.4011   -0.2626 N.am      1 <0>        -0.6227
     18 C14        -2.5009  -10.6714   -0.2915 C.2       1 <0>         0.5541
     19 C15        -3.9464  -10.9195   -0.3081 C.ar      1 <0>        -0.1472
     20 C16        -4.8183   -9.8055   -0.2932 C.ar      1 <0>         0.0202
     21 C17        -6.2011  -10.0134   -0.3089 C.ar      1 <0>        -0.1234
     22 C18        -6.6938  -11.2874   -0.3386 C.ar      1 <0>        -0.0791
     23 C19        -5.8400  -12.3831   -0.3536 C.ar      1 <0>        -0.1289
     24 C20        -4.4731  -12.2102   -0.3386 C.ar      1 <0>        -0.0458
     25 O2         -1.7143  -11.6010   -0.3041 O.2       1 <0>        -0.5168
     26 H1         -5.5827    1.8810   -1.7672 H         1 <0>         0.1312
     27 H2         -4.9093    1.6815   -0.1317 H         1 <0>         0.1262
     28 H3         -3.8235    1.9722   -1.5119 H         1 <0>         0.1252
     29 H4         -4.3379   -1.2989   -3.0046 H         1 <0>         0.1392
     30 H5         -5.2547    0.1702   -3.4164 H         1 <0>         0.1284
     31 H6         -3.4955    0.2613   -3.1611 H         1 <0>         0.1204
     32 H7         -2.5781   -0.0739   -1.0166 H         1 <0>         0.1629
     33 H8         -3.6296   -0.2211    0.4121 H         1 <0>         0.1649
     34 H9         -1.8067   -2.2424    0.3403 H         1 <0>         0.4227
     35 H10        -0.4136   -4.2998   -0.1483 H         1 <0>         0.1382
     36 H11        -0.4584   -6.7543   -0.1979 H         1 <0>         0.1364
     37 H12        -4.6917   -4.2078   -0.1720 H         1 <0>         0.1405
     38 H13        -5.5425   -7.0382    0.6506 H         1 <0>         0.1111
     39 H14        -5.5282   -7.0026   -1.1374 H         1 <0>         0.1113
     40 H15        -6.8765   -9.1707   -0.2972 H         1 <0>         0.1330
     41 H16        -7.7622  -11.4449   -0.3503 H         1 <0>         0.1325
     42 H17        -6.2520  -13.3812   -0.3771 H         1 <0>         0.1354
     43 H18        -3.8154  -13.0668   -0.3501 H         1 <0>         0.1418
     44 H19        -1.1003   -9.2379   -0.2517 H         1 <0>         0.4123
     45 H20        -5.4916   -0.4111   -1.1159 H         1 <0>         0.4344
@<TRIPOS>BOND
     1    1    2 1
     2    1   26 1
     3    1   27 1
     4    1   28 1
     5    2    3 1
     6    2    4 1
     7    2   45 1
     8    3   29 1
     9    3   30 1
    10    3   31 1
    11    4    5 1
    12    4   32 1
    13    4   33 1
    14    5    6 2
    15    5    7 am
    16    7    8 1
    17    7   34 1
    18    8   13 ar
    19    8    9 ar
    20    9   10 ar
    21    9   35 1
    22   10   11 ar
    23   10   36 1
    24   11   16 1
    25   11   12 ar
    26   12   13 ar
    27   12   14 1
    28   13   37 1
    29   14   15 1
    30   14   38 1
    31   14   39 1
    32   15   20 1
    33   15   16 2
    34   16   17 1
    35   17   18 am
    36   17   44 1
    37   18   19 1
    38   18   25 2
    39   19   24 ar
    40   19   20 ar
    41   20   21 ar
    42   21   22 ar
    43   21   40 1
    44   22   23 ar
    45   22   41 1
    46   23   24 ar
    47   23   42 1
    48   24   43 1
@<TRIPOS>MOLECULE
CHEMBL380648
   50    53     0     0     0
SMALL
USER_CHARGES

@<TRIPOS>ATOM
      1 C1         -0.9356    1.2247    0.1121 C.ar      1 <0>        -0.0861
      2 C2          0.1376    2.1004    0.2161 C.ar      1 <0>        -0.1066
      3 C3          1.4288    1.6253    0.2860 C.ar      1 <0>        -0.0530
      4 C4          1.6546    0.2499    0.2521 C.ar      1 <0>        -0.1241
      5 C5          0.5597   -0.6380    0.1467 C.ar      1 <0>        -0.0645
      6 C6         -0.7378   -0.1273    0.0771 C.ar      1 <0>        -0.0990
      7 C7          0.8263   -2.0761    0.1127 C.2       1 <0>         0.1343
      8 N1          2.0488   -2.5124    0.1794 N.2       1 <0>        -0.2253
      9 N2          3.1485   -1.6603    0.2839 N.am      1 <0>        -0.5338
     10 H1          4.0390   -2.0421    0.3302 H         1 <0>         0.4375
     11 C8          3.0062   -0.3189    0.3222 C.2       1 <0>         0.5281
     12 O1          3.9807    0.4062    0.4134 O.2       1 <0>        -0.5129
     13 C9         -0.3167   -3.0518    0.0009 C.3       1 <0>        -0.0174
     14 C10         0.2233   -4.4587   -0.0136 C.ar      1 <0>        -0.0859
     15 C11         0.5562   -5.0576   -1.2167 C.ar      1 <0>        -0.0407
     16 C12         1.0521   -6.3474   -1.2408 C.ar      1 <0>        -0.1507
     17 C13         1.2196   -7.0487   -0.0604 C.ar      1 <0>         0.1530
     18 C14         0.8855   -6.4485    1.1574 C.ar      1 <0>        -0.1815
     19 C15         0.3895   -5.1429    1.1715 C.ar      1 <0>        -0.0476
     20 C16         1.0605   -7.1896    2.4229 C.2       1 <0>         0.5661
     21 O2          2.0874   -7.8068    2.6288 O.2       1 <0>        -0.4981
     22 N3          0.0817   -7.1817    3.3493 N.am      1 <0>        -0.6244
     23 C17        -1.2045   -6.5344    3.0207 C.3       1 <0>         0.0878
     24 C18        -2.3917   -7.3694    3.5339 C.3       1 <0>        -0.1590
     25 C19        -2.1079   -8.8383    3.3102 C.3       1 <0>        -0.0099
     26 N4         -1.5015   -9.4012    4.5146 N.4       1 <0>        -0.4871
     27 C20        -0.0943   -9.2955    4.5780 C.3       1 <0>        -0.0468
     28 C21         0.3268   -7.8136    4.6294 C.3       1 <0>         0.0971
     29 F1          1.7041   -8.3096   -0.0841 F         1 <0>        -0.1236
     30 H2         -1.9405    1.6174    0.0627 H         1 <0>         0.1381
     31 H3         -0.0421    3.1651    0.2420 H         1 <0>         0.1399
     32 H4          2.2586    2.3120    0.3660 H         1 <0>         0.1453
     33 H5         -1.5811   -0.7972   -0.0043 H         1 <0>         0.1406
     34 H6         -0.9849   -2.9279    0.8531 H         1 <0>         0.1088
     35 H7         -0.8659   -2.8639   -0.9217 H         1 <0>         0.1135
     36 H8          0.4273   -4.5143   -2.1412 H         1 <0>         0.1430
     37 H9          1.3091   -6.8086   -2.1830 H         1 <0>         0.1487
     38 H10         0.1328   -4.6718    2.1088 H         1 <0>         0.1372
     39 H11        -1.2360   -5.5470    3.4815 H         1 <0>         0.0910
     40 H12        -1.2844   -6.4261    1.9391 H         1 <0>         0.1080
     41 H13        -2.5327   -7.1846    4.5988 H         1 <0>         0.0931
     42 H14        -3.2951   -7.0874    2.9932 H         1 <0>         0.1280
     43 H15        -3.0400   -9.3603    3.0941 H         1 <0>         0.1411
     44 H16        -1.4227   -8.9528    2.4702 H         1 <0>         0.1298
     45 H17        -1.8925   -8.9313    5.3173 H         1 <0>         0.4227
     46 H18         0.2662   -9.8057    5.4711 H         1 <0>         0.1493
     47 H19         0.3430   -9.7638    3.6962 H         1 <0>         0.1339
     48 H20         1.3888   -7.7512    4.8668 H         1 <0>         0.1280
     49 H21        -0.2469   -7.3015    5.4020 H         1 <0>         0.1031
     50 H22        -1.7502  -10.3775    4.5697 H         1 <0>         0.4308
@<TRIPOS>BOND
     1    1    6 ar
     2    1    2 ar
     3    1   30 1
     4    2    3 ar
     5    2   31 1
     6    3    4 ar
     7    3   32 1
     8    4   11 1
     9    4    5 ar
    10    5    6 ar
    11    5    7 1
    12    6   33 1
    13    7    8 2
    14    7   13 1
    15    8    9 1
    16    9   10 1
    17    9   11 am
    18   11   12 2
    19   13   14 1
    20   13   34 1
    21   13   35 1
    22   14   19 ar
    23   14   15 ar
    24   15   16 ar
    25   15   36 1
    26   16   17 ar
    27   16   37 1
    28   17   18 ar
    29   17   29 1
    30   18   19 ar
    31   18   20 1
    32   19   38 1
    33   20   21 2
    34   20   22 am
    35   22   28 1
    36   22   23 1
    37   23   24 1
    38   23   39 1
    39   23   40 1
    40   24   25 1
    41   24   41 1
    42   24   42 1
    43   25   26 1
    44   25   43 1
    45   25   44 1
    46   26   27 1
    47   26   45 1
    48   26   50 1
    49   27   28 1
    50   27   46 1
    51   27   47 1
    52   28   48 1
    53   28   49 1
@<TRIPOS>MOLECULE
CHEMBL1090020
   59    63     0     0     0
SMALL
USER_CHARGES

@<TRIPOS>ATOM
      1 C1         -0.5894    0.2225   -0.4687 C.ar      1 <0>        -0.1034
      2 C2          0.4754    1.0917   -0.3215 C.ar      1 <0>        -0.1136
      3 C3          1.7656    0.5996   -0.2581 C.ar      1 <0>        -0.1098
      4 C4          1.9911   -0.7617   -0.3414 C.ar      1 <0>        -0.1097
      5 C5          0.9262   -1.6309   -0.4877 C.ar      1 <0>        -0.1102
      6 C6         -0.3639   -1.1387   -0.5525 C.ar      1 <0>        -0.1139
      7 C7          3.3977   -1.2980   -0.2733 C.3       1 <0>        -0.0998
      8 C8          3.7639   -1.5855    1.1842 C.3       1 <0>        -0.0068
      9 N1          5.1351   -2.1084    1.2506 N.4       1 <0>        -0.3862
     10 C9          5.1970   -3.4037    0.5631 C.3       1 <0>        -0.0076
     11 C10         6.6394   -3.9147    0.5588 C.3       1 <0>        -0.1435
     12 C11         7.1216   -4.0780    2.0031 C.3       1 <0>         0.0747
     13 C12         6.9827   -2.7382    2.7318 C.3       1 <0>        -0.1798
     14 C13         5.5276   -2.2709    2.6556 C.3       1 <0>        -0.0028
     15 O1          8.4918   -4.4839    2.0064 O.3       1 <0>        -0.2945
     16 C14         8.9329   -5.1589    3.1011 C.ar      1 <0>         0.0958
     17 C15        10.2259   -5.6770    3.1205 C.ar      1 <0>        -0.0879
     18 C16        10.6908   -6.3627    4.2213 C.ar      1 <0>        -0.1118
     19 C17         9.8622   -6.5403    5.3248 C.ar      1 <0>         0.1584
     20 C18         8.5600   -6.0234    5.3096 C.ar      1 <0>        -0.0834
     21 C19         8.0989   -5.3219    4.1889 C.ar      1 <0>        -0.1639
     22 C20         7.6695   -6.2122    6.4766 C.2       1 <0>        -0.0002
     23 C21         8.1486   -6.9039    7.5217 C.2       1 <0>        -0.1502
     24 C22         9.4894   -7.3882    7.4907 C.2       1 <0>         0.5369
     25 O2          9.9144   -7.9846    8.4651 O.2       1 <0>        -0.5217
     26 N2         10.3024   -7.2189    6.4425 N.am      1 <0>        -0.6253
     27 H1         11.2045   -7.5746    6.4679 H         1 <0>         0.4229
     28 C23         7.3791   -7.2622    8.7702 C.3       1 <0>        -0.0335
     29 S1          5.9327   -6.1827    8.9516 S.3       1 <0>        -0.2307
     30 C24         5.2610   -6.1832    7.2582 C.3       1 <0>        -0.0919
     31 C25         6.3173   -5.5738    6.3477 C.3       1 <0>        -0.0847
     32 H2         -1.5978    0.6066   -0.5138 H         1 <0>         0.1300
     33 H3          0.2993    2.1553   -0.2565 H         1 <0>         0.1297
     34 H4          2.5976    1.2788   -0.1439 H         1 <0>         0.1242
     35 H5          1.1024   -2.6944   -0.5531 H         1 <0>         0.1234
     36 H6         -1.1958   -1.8178   -0.6672 H         1 <0>         0.1295
     37 H7          3.4640   -2.2187   -0.8529 H         1 <0>         0.0950
     38 H8          4.0880   -0.5605   -0.6826 H         1 <0>         0.0957
     39 H9          3.6976   -0.6648    1.7639 H         1 <0>         0.1345
     40 H10         3.0736   -2.3231    1.5936 H         1 <0>         0.1324
     41 H11         4.5597   -4.1204    1.0812 H         1 <0>         0.1331
     42 H12         4.8505   -3.2866   -0.4637 H         1 <0>         0.1421
     43 H13         6.6830   -4.8774    0.0495 H         1 <0>         0.1234
     44 H14         7.2776   -3.1989    0.0407 H         1 <0>         0.1026
     45 H15         6.5159   -4.8313    2.5067 H         1 <0>         0.0899
     46 H16         7.2717   -2.8600    3.7757 H         1 <0>         0.1189
     47 H17         7.6280   -1.9980    2.2588 H         1 <0>         0.1043
     48 H18         5.4251   -1.3173    3.1737 H         1 <0>         0.1389
     49 H19         4.8833   -3.0117    3.1291 H         1 <0>         0.1313
     50 H20        10.8699   -5.5401    2.2644 H         1 <0>         0.1461
     51 H21        11.6946   -6.7611    4.2276 H         1 <0>         0.1496
     52 H22         7.0983   -4.9158    4.1740 H         1 <0>         0.1396
     53 H23         7.0494   -8.2991    8.7056 H         1 <0>         0.1078
     54 H24         8.0270   -7.1460    9.6390 H         1 <0>         0.1320
     55 H25         5.0471   -7.2050    6.9450 H         1 <0>         0.0925
     56 H26         4.3504   -5.5852    7.2209 H         1 <0>         0.1181
     57 H27         6.4094   -4.5134    6.5826 H         1 <0>         0.1003
     58 H28         5.9839   -5.6706    5.3145 H         1 <0>         0.0874
     59 H29         5.7633   -1.4602    0.7998 H         1 <0>         0.4254
@<TRIPOS>BOND
     1    1    6 ar
     2    1    2 ar
     3    1   32 1
     4    2    3 ar
     5    2   33 1
     6    3    4 ar
     7    3   34 1
     8    4    5 ar
     9    4    7 1
    10    5    6 ar
    11    5   35 1
    12    6   36 1
    13    7    8 1
    14    7   37 1
    15    7   38 1
    16    8    9 1
    17    8   39 1
    18    8   40 1
    19    9   14 1
    20    9   10 1
    21    9   59 1
    22   10   11 1
    23   10   41 1
    24   10   42 1
    25   11   12 1
    26   11   43 1
    27   11   44 1
    28   12   13 1
    29   12   15 1
    30   12   45 1
    31   13   14 1
    32   13   46 1
    33   13   47 1
    34   14   48 1
    35   14   49 1
    36   15   16 1
    37   16   21 ar
    38   16   17 ar
    39   17   18 ar
    40   17   50 1
    41   18   19 ar
    42   18   51 1
    43   19   26 1
    44   19   20 ar
    45   20   21 ar
    46   20   22 1
    47   21   52 1
    48   22   31 1
    49   22   23 2
    50   23   24 1
    51   23   28 1
    52   24   25 2
    53   24   26 am
    54   26   27 1
    55   28   29 1
    56   28   53 1
    57   28   54 1
    58   29   30 1
    59   30   31 1
    60   30   55 1
    61   30   56 1
    62   31   57 1
    63   31   58 1
@<TRIPOS>MOLECULE
CHEMBL1089332
   64    68     0     0     0
SMALL
USER_CHARGES

@<TRIPOS>ATOM
      1 C1         -0.0038    1.3690    0.2369 C.ar      1 <0>        -0.1559
      2 C2          1.1731    2.0860    0.2374 C.ar      1 <0>        -0.1163
      3 C3          2.3792    1.4335    0.0048 C.ar      1 <0>         0.1505
      4 C4          2.3908    0.0520   -0.2308 C.ar      1 <0>        -0.0812
      5 C5          1.1903   -0.6680   -0.2282 C.ar      1 <0>        -0.0985
      6 C6          0.0023   -0.0044    0.0063 C.ar      1 <0>         0.1024
      7 O1         -1.1683   -0.6959    0.0119 O.3       1 <0>        -0.3028
      8 C7         -2.3708    0.0653    0.1410 C.3       1 <0>         0.0847
      9 C8         -2.6576    0.3216    1.6231 C.3       1 <0>        -0.1465
     10 C9         -3.9776    1.0842    1.7577 C.3       1 <0>         0.0604
     11 N1         -5.0629    0.2961    1.1598 N.3       1 <0>        -0.5310
     12 C10        -4.8328    0.0776   -0.2739 C.3       1 <0>         0.0507
     13 C11        -3.5384   -0.7150   -0.4693 C.3       1 <0>        -0.1145
     14 C12        -6.3660    0.9328    1.3929 C.3       1 <0>         0.0275
     15 C13        -7.4838   -0.0275    0.9815 C.3       1 <0>        -0.0110
     16 N2         -8.7869    0.6092    1.2145 N.4       1 <0>        -0.3814
     17 C14        -8.9686    0.8362    2.6533 C.3       1 <0>        -0.0115
     18 C15       -10.2882    1.5723    2.8947 C.3       1 <0>        -0.1460
     19 C16       -11.4452    0.7233    2.3602 C.3       1 <0>        -0.1398
     20 C17       -11.2072    0.4303    0.8761 C.3       1 <0>        -0.1463
     21 C18        -9.8536   -0.2634    0.7094 C.3       1 <0>        -0.0053
     22 C19         3.6688   -0.6500   -0.4850 C.2       1 <0>         0.0119
     23 C20         4.7917    0.0839   -0.4995 C.2       1 <0>        -0.1600
     24 C21         4.7223    1.4828   -0.2316 C.2       1 <0>         0.5395
     25 O2          5.7593    2.1233   -0.2161 O.2       1 <0>        -0.5283
     26 N3          3.5731    2.1250    0.0033 N.am      1 <0>        -0.6267
     27 H1          3.5789    3.0800    0.1733 H         1 <0>         0.4194
     28 C22         6.1776   -0.4297   -0.8077 C.3       1 <0>        -0.0298
     29 S1          6.2442   -2.2303   -0.5994 S.3       1 <0>        -0.2380
     30 C23         4.7122   -2.7525   -1.4355 C.3       1 <0>        -0.0869
     31 C24         3.5455   -2.1331   -0.6797 C.3       1 <0>        -0.0932
     32 H2         -0.9393    1.8762    0.4215 H         1 <0>         0.1359
     33 H3          1.1589    3.1508    0.4175 H         1 <0>         0.1401
     34 H4          1.1932   -1.7330   -0.4077 H         1 <0>         0.1488
     35 H5         -2.2572    1.0167   -0.3788 H         1 <0>         0.0727
     36 H6         -2.7318   -0.6301    2.1492 H         1 <0>         0.0902
     37 H7         -1.8498    0.9138    2.0530 H         1 <0>         0.0827
     38 H8         -4.1919    1.2557    2.8126 H         1 <0>         0.0888
     39 H9         -3.8980    2.0417    1.2431 H         1 <0>         0.0449
     40 H10        -5.6683   -0.4819   -0.6947 H         1 <0>         0.0846
     41 H11        -4.7492    1.0399   -0.7791 H         1 <0>         0.0466
     42 H12        -3.3598   -0.8635   -1.5343 H         1 <0>         0.0855
     43 H13        -3.6264   -1.6830    0.0240 H         1 <0>         0.0894
     44 H14        -6.4674    1.1765    2.4505 H         1 <0>         0.0991
     45 H15        -6.4353    1.8457    0.8014 H         1 <0>         0.0578
     46 H16        -7.3824   -0.2712   -0.0761 H         1 <0>         0.1304
     47 H17        -7.4145   -0.9404    1.5730 H         1 <0>         0.1402
     48 H18        -8.9874   -0.1221    3.1723 H         1 <0>         0.1306
     49 H19        -8.1427    1.4379    3.0328 H         1 <0>         0.1295
     50 H20       -10.4220    1.7383    3.9637 H         1 <0>         0.1123
     51 H21       -10.2704    2.5310    2.3763 H         1 <0>         0.0869
     52 H22       -11.4950   -0.2145    2.9135 H         1 <0>         0.0824
     53 H23       -12.3819    1.2679    2.4786 H         1 <0>         0.0944
     54 H24       -11.9980   -0.2200    0.5021 H         1 <0>         0.1129
     55 H25       -11.2085    1.3653    0.3157 H         1 <0>         0.0872
     56 H26        -9.6811   -0.4737   -0.3461 H         1 <0>         0.1296
     57 H27        -9.8535   -1.1983    1.2699 H         1 <0>         0.1298
     58 H28         6.4359   -0.1758   -1.8358 H         1 <0>         0.1049
     59 H29         6.8941    0.0382   -0.1326 H         1 <0>         0.1292
     60 H30         4.7144   -2.3997   -2.4668 H         1 <0>         0.0918
     61 H31         4.6313   -3.8393   -1.4152 H         1 <0>         0.1203
     62 H32         3.4736   -2.6077    0.2989 H         1 <0>         0.1053
     63 H33         2.6270   -2.3366   -1.2301 H         1 <0>         0.0983
     64 H34        -8.8195    1.4936    0.7298 H         1 <0>         0.4208
@<TRIPOS>BOND
     1    1    6 ar
     2    1    2 ar
     3    1   32 1
     4    2    3 ar
     5    2   33 1
     6    3   26 1
     7    3    4 ar
     8    4    5 ar
     9    4   22 1
    10    5    6 ar
    11    5   34 1
    12    6    7 1
    13    7    8 1
    14    8   13 1
    15    8    9 1
    16    8   35 1
    17    9   10 1
    18    9   36 1
    19    9   37 1
    20   10   11 1
    21   10   38 1
    22   10   39 1
    23   11   12 1
    24   11   14 1
    25   12   13 1
    26   12   40 1
    27   12   41 1
    28   13   42 1
    29   13   43 1
    30   14   15 1
    31   14   44 1
    32   14   45 1
    33   15   16 1
    34   15   46 1
    35   15   47 1
    36   16   21 1
    37   16   17 1
    38   16   64 1
    39   17   18 1
    40   17   48 1
    41   17   49 1
    42   18   19 1
    43   18   50 1
    44   18   51 1
    45   19   20 1
    46   19   52 1
    47   19   53 1
    48   20   21 1
    49   20   54 1
    50   20   55 1
    51   21   56 1
    52   21   57 1
    53   22   31 1
    54   22   23 2
    55   23   24 1
    56   23   28 1
    57   24   25 2
    58   24   26 am
    59   26   27 1
    60   28   29 1
    61   28   58 1
    62   28   59 1
    63   29   30 1
    64   30   31 1
    65   30   60 1
    66   30   61 1
    67   31   62 1
    68   31   63 1
@<TRIPOS>MOLECULE
CHEMBL1089332__1
   65    69     0     0     0
SMALL
USER_CHARGES

@<TRIPOS>ATOM
      1 C1         -0.0038    1.3689    0.2380 C.ar      1 <0>        -0.1595
      2 C2          1.1731    2.0858    0.2390 C.ar      1 <0>        -0.1159
      3 C3          2.3792    1.4333    0.0064 C.ar      1 <0>         0.1630
      4 C4          2.3909    0.0519   -0.2298 C.ar      1 <0>        -0.0765
      5 C5          1.1903   -0.6680   -0.2277 C.ar      1 <0>        -0.0862
      6 C6          0.0023   -0.0045    0.0068 C.ar      1 <0>         0.0816
      7 O1         -1.1683   -0.6959    0.0119 O.3       1 <0>        -0.2940
      8 C7         -2.3708    0.0653    0.1410 C.3       1 <0>         0.0744
      9 C8         -2.6590    0.3201    1.6233 C.3       1 <0>        -0.1813
     10 C9         -3.9882    1.0663    1.7579 C.3       1 <0>        -0.0026
     11 N1         -5.0682    0.2575    1.1799 N.4       1 <0>        -0.3817
     12 C10        -4.8353    0.0696   -0.2571 C.3       1 <0>        -0.0119
     13 C11        -3.5387   -0.7149   -0.4693 C.3       1 <0>        -0.1457
     14 C12        -6.3521    0.9424    1.3809 C.3       1 <0>        -0.0383
     15 C13        -7.4907    0.0453    0.8914 C.3       1 <0>        -0.0387
     16 N2         -8.7747    0.7302    1.0924 N.4       1 <0>        -0.3785
     17 C14        -9.0076    0.9181    2.5294 C.3       1 <0>        -0.0176
     18 C15       -10.3041    1.7026    2.7416 C.3       1 <0>        -0.1470
     19 C16       -11.4721    0.9224    2.1314 C.3       1 <0>        -0.1434
     20 C17       -11.1838    0.6676    0.6491 C.3       1 <0>        -0.1479
     21 C18        -9.8547   -0.0786    0.5144 C.3       1 <0>        -0.0073
     22 C19         3.6689   -0.6500   -0.4840 C.2       1 <0>         0.0017
     23 C20         4.7918    0.0839   -0.4979 C.2       1 <0>        -0.1461
     24 C21         4.7225    1.4827   -0.2296 C.2       1 <0>         0.5376
     25 O2          5.7595    2.1232   -0.2136 O.2       1 <0>        -0.5144
     26 N3          3.5732    2.1248    0.0054 N.am      1 <0>        -0.6285
     27 H1          3.5790    3.0797    0.1757 H         1 <0>         0.4218
     28 C22         6.1777   -0.4297   -0.8061 C.3       1 <0>        -0.0369
     29 S1          6.2443   -2.2303   -0.5985 S.3       1 <0>        -0.2281
     30 C23         4.7124   -2.7522   -1.4351 C.3       1 <0>        -0.0908
     31 C24         3.5456   -2.1330   -0.6793 C.3       1 <0>        -0.0907
     32 H2         -0.9393    1.8760    0.4225 H         1 <0>         0.1309
     33 H3          1.1590    3.1506    0.4195 H         1 <0>         0.1433
     34 H4          1.1933   -1.7329   -0.4076 H         1 <0>         0.1513
     35 H5         -2.2573    1.0170   -0.3783 H         1 <0>         0.0931
     36 H6         -2.7208   -0.6317    2.1509 H         1 <0>         0.1070
     37 H7         -1.8582    0.9230    2.0514 H         1 <0>         0.1271
     38 H8         -4.1963    1.2495    2.8120 H         1 <0>         0.1435
     39 H9         -3.9252    2.0179    1.2302 H         1 <0>         0.1384
     40 H10        -5.6689   -0.4830   -0.6906 H         1 <0>         0.1380
     41 H11        -4.7542    1.0425   -0.7419 H         1 <0>         0.1414
     42 H12        -3.3667   -0.8518   -1.5369 H         1 <0>         0.1304
     43 H13        -3.6188   -1.6881    0.0149 H         1 <0>         0.1060
     44 H14        -6.4879    1.1558    2.4412 H         1 <0>         0.1538
     45 H15        -6.3578    1.8761    0.8187 H         1 <0>         0.1537
     46 H16        -7.3549   -0.1681   -0.1688 H         1 <0>         0.1524
     47 H17        -7.4851   -0.8884    1.4537 H         1 <0>         0.1530
     48 H18        -9.0886   -0.0548    3.0142 H         1 <0>         0.1372
     49 H19        -8.1740    1.4707    2.9629 H         1 <0>         0.1277
     50 H20       -10.4761    1.8395    3.8092 H         1 <0>         0.1196
     51 H21       -10.2240    2.6758    2.2574 H         1 <0>         0.0917
     52 H22       -11.5847   -0.0299    2.6497 H         1 <0>         0.0856
     53 H23       -12.3893    1.5030    2.2298 H         1 <0>         0.1018
     54 H24       -11.9847    0.0647    0.2209 H         1 <0>         0.1211
     55 H25       -11.1220    1.6194    0.1215 H         1 <0>         0.0918
     56 H26        -9.6465   -0.2618   -0.5397 H         1 <0>         0.1361
     57 H27        -9.9177   -1.0302    1.0421 H         1 <0>         0.1355
     58 H28         6.4363   -0.1754   -1.8340 H         1 <0>         0.1089
     59 H29         6.8941    0.0379   -0.1307 H         1 <0>         0.1323
     60 H30         4.7149   -2.3990   -2.4662 H         1 <0>         0.0928
     61 H31         4.6315   -3.8390   -1.4152 H         1 <0>         0.1220
     62 H32         3.4735   -2.6079    0.2992 H         1 <0>         0.1050
     63 H33         2.6272   -2.3363   -1.2299 H         1 <0>         0.0958
     64 H34        -8.7495    1.6303    0.6373 H         1 <0>         0.4292
     65 H35        -5.0942   -0.6422    1.6358 H         1 <0>         0.4321
@<TRIPOS>BOND
     1    1    6 ar
     2    1    2 ar
     3    1   32 1
     4    2    3 ar
     5    2   33 1
     6    3   26 1
     7    3    4 ar
     8    4    5 ar
     9    4   22 1
    10    5    6 ar
    11    5   34 1
    12    6    7 1
    13    7    8 1
    14    8   13 1
    15    8    9 1
    16    8   35 1
    17    9   10 1
    18    9   36 1
    19    9   37 1
    20   10   11 1
    21   10   38 1
    22   10   39 1
    23   11   12 1
    24   11   14 1
    25   11   65 1
    26   12   13 1
    27   12   40 1
    28   12   41 1
    29   13   42 1
    30   13   43 1
    31   14   15 1
    32   14   44 1
    33   14   45 1
    34   15   16 1
    35   15   46 1
    36   15   47 1
    37   16   21 1
    38   16   17 1
    39   16   64 1
    40   17   18 1
    41   17   48 1
    42   17   49 1
    43   18   19 1
    44   18   50 1
    45   18   51 1
    46   19   20 1
    47   19   52 1
    48   19   53 1
    49   20   21 1
    50   20   54 1
    51   20   55 1
    52   21   56 1
    53   21   57 1
    54   22   31 1
    55   22   23 2
    56   23   24 1
    57   23   28 1
    58   24   25 2
    59   24   26 am
    60   26   27 1
    61   28   29 1
    62   28   58 1
    63   28   59 1
    64   29   30 1
    65   30   31 1
    66   30   60 1
    67   30   61 1
    68   31   62 1
    69   31   63 1
@<TRIPOS>MOLECULE
CHEMBL1090019
   56    60     0     0     0
SMALL
USER_CHARGES

@<TRIPOS>ATOM
      1 C1          0.0642    1.9492    0.2322 C.ar      1 <0>        -0.0828
      2 C2          1.2181    2.6915    0.4006 C.ar      1 <0>        -0.1131
      3 C3          2.4534    2.0761    0.3224 C.ar      1 <0>        -0.0984
      4 C4          2.5349    0.7183    0.0761 C.ar      1 <0>        -0.1639
      5 C5          1.3809   -0.0242   -0.0914 C.ar      1 <0>        -0.0930
      6 C6          0.1456    0.5915   -0.0145 C.ar      1 <0>        -0.1123
      7 C7          3.8816    0.0476   -0.0102 C.3       1 <0>         0.0446
      8 N1          4.2824   -0.4196    1.3237 N.4       1 <0>        -0.3845
      9 C8          4.4707    0.7360    2.2090 C.3       1 <0>        -0.0077
     10 C9          4.8093    0.2520    3.6206 C.3       1 <0>        -0.1422
     11 C10         6.0980   -0.5741    3.5757 C.3       1 <0>         0.0752
     12 C11         5.9151   -1.7341    2.5928 C.3       1 <0>        -0.1796
     13 C12         5.5356   -1.1765    1.2192 C.3       1 <0>        -0.0034
     14 O1          6.3797   -1.0910    4.8778 O.3       1 <0>        -0.2946
     15 C13         7.6770   -1.3873    5.1569 C.ar      1 <0>         0.0961
     16 C14         8.0341   -1.7911    6.4415 C.ar      1 <0>        -0.0880
     17 C15         9.3433   -2.0965    6.7426 C.ar      1 <0>        -0.1119
     18 C16        10.3193   -2.0012    5.7555 C.ar      1 <0>         0.1582
     19 C17         9.9660   -1.5933    4.4625 C.ar      1 <0>        -0.0833
     20 C18         8.6315   -1.2916    4.1643 C.ar      1 <0>        -0.1640
     21 C19        10.9982   -1.4836    3.4075 C.2       1 <0>         0.0000
     22 C20        12.2658   -1.7678    3.7427 C.2       1 <0>        -0.1504
     23 C21        12.5639   -2.1990    5.0688 C.2       1 <0>         0.5369
     24 O2         13.7172   -2.4843    5.3415 O.2       1 <0>        -0.5219
     25 N2         11.6373   -2.3049    6.0274 N.am      1 <0>        -0.6253
     26 H1         11.8929   -2.5959    6.9167 H         1 <0>         0.4228
     27 C22        13.4663   -1.6502    2.8347 C.3       1 <0>        -0.0334
     28 S1         12.9441   -1.6299    1.0978 S.3       1 <0>        -0.2308
     29 C23        11.5404   -0.4700    1.1511 C.3       1 <0>        -0.0918
     30 C24        10.4804   -1.0773    2.0586 C.3       1 <0>        -0.0848
     31 H2         -0.9010    2.4292    0.2978 H         1 <0>         0.1364
     32 H3          1.1545    3.7523    0.5930 H         1 <0>         0.1366
     33 H4          3.3550    2.6562    0.4532 H         1 <0>         0.1311
     34 H5          1.4445   -1.0850   -0.2841 H         1 <0>         0.1315
     35 H6         -0.7559    0.0114   -0.1457 H         1 <0>         0.1367
     36 H7          3.8213   -0.8024   -0.6899 H         1 <0>         0.1388
     37 H8          4.6186    0.7590   -0.3826 H         1 <0>         0.1365
     38 H9          5.2861    1.3531    1.8316 H         1 <0>         0.1320
     39 H10         3.5538    1.3247    2.2373 H         1 <0>         0.1410
     40 H11         4.9505    1.1115    4.2759 H         1 <0>         0.1227
     41 H12         3.9943   -0.3651    3.9990 H         1 <0>         0.1015
     42 H13         6.9238    0.0563    3.2461 H         1 <0>         0.0900
     43 H14         6.8468   -2.2942    2.5135 H         1 <0>         0.1192
     44 H15         5.1231   -2.3924    2.9499 H         1 <0>         0.1040
     45 H16         5.4049   -1.9998    0.5169 H         1 <0>         0.1393
     46 H17         6.3283   -0.5186    0.8630 H         1 <0>         0.1319
     47 H18         7.2775   -1.8650    7.2086 H         1 <0>         0.1460
     48 H19         9.6112   -2.4085    7.7413 H         1 <0>         0.1495
     49 H20         8.3522   -0.9826    3.1678 H         1 <0>         0.1398
     50 H21        14.0010   -0.7279    3.0614 H         1 <0>         0.1077
     51 H22        14.1295   -2.4989    3.0020 H         1 <0>         0.1319
     52 H23        11.8673    0.4888    1.5536 H         1 <0>         0.0924
     53 H24        11.1351   -0.3328    0.1486 H         1 <0>         0.1181
     54 H25        10.0632   -1.9560    1.5669 H         1 <0>         0.1005
     55 H26         9.6820   -0.3482    2.1975 H         1 <0>         0.0875
     56 H27         3.5610   -1.0157    1.7009 H         1 <0>         0.4248
@<TRIPOS>BOND
     1    1    6 ar
     2    1    2 ar
     3    1   31 1
     4    2    3 ar
     5    2   32 1
     6    3    4 ar
     7    3   33 1
     8    4    5 ar
     9    4    7 1
    10    5    6 ar
    11    5   34 1
    12    6   35 1
    13    7    8 1
    14    7   36 1
    15    7   37 1
    16    8   13 1
    17    8    9 1
    18    8   56 1
    19    9   10 1
    20    9   38 1
    21    9   39 1
    22   10   11 1
    23   10   40 1
    24   10   41 1
    25   11   12 1
    26   11   14 1
    27   11   42 1
    28   12   13 1
    29   12   43 1
    30   12   44 1
    31   13   45 1
    32   13   46 1
    33   14   15 1
    34   15   20 ar
    35   15   16 ar
    36   16   17 ar
    37   16   47 1
    38   17   18 ar
    39   17   48 1
    40   18   25 1
    41   18   19 ar
    42   19   20 ar
    43   19   21 1
    44   20   49 1
    45   21   30 1
    46   21   22 2
    47   22   23 1
    48   22   27 1
    49   23   24 2
    50   23   25 am
    51   25   26 1
    52   27   28 1
    53   27   50 1
    54   27   51 1
    55   28   29 1
    56   29   30 1
    57   29   52 1
    58   29   53 1
    59   30   54 1
    60   30   55 1
@<TRIPOS>MOLECULE
CHEMBL1090018
   52    56     0     0     0
SMALL
USER_CHARGES

@<TRIPOS>ATOM
      1 C1          0.0832    1.1567   -0.6079 C.ar      1 <0>        -0.1780
      2 C2          0.2743   -0.1825   -0.8948 C.ar      1 <0>        -0.0714
      3 C3          1.5344   -0.7387   -0.7947 C.ar      1 <0>        -0.1990
      4 C4          2.6105    0.0486   -0.4054 C.ar      1 <0>         0.2175
      5 C5          2.4150    1.3936   -0.1180 C.ar      1 <0>        -0.1992
      6 C6          1.1523    1.9434   -0.2201 C.ar      1 <0>        -0.0714
      7 N1          3.8862   -0.5108   -0.3027 N.pl3     1 <0>        -0.6317
      8 C7          5.0528    0.3338   -0.0121 C.3       1 <0>         0.1245
      9 C8          5.7883   -0.2422    1.2021 C.3       1 <0>        -0.1322
     10 C9          6.1259   -1.7115    0.9391 C.3       1 <0>         0.0892
     11 C10         4.8333   -2.5053    0.7362 C.3       1 <0>        -0.1644
     12 C11         4.0861   -1.9559   -0.4772 C.3       1 <0>         0.1247
     13 O1          6.8406   -2.2431    2.0566 O.3       1 <0>        -0.3045
     14 C12         7.6538   -3.3067    1.8199 C.ar      1 <0>         0.1116
     15 C13         8.4562   -3.8060    2.8433 C.ar      1 <0>        -0.0937
     16 C14         9.2857   -4.8837    2.6225 C.ar      1 <0>        -0.1163
     17 C15         9.3235   -5.4800    1.3660 C.ar      1 <0>         0.1461
     18 C16         8.5202   -4.9803    0.3324 C.ar      1 <0>        -0.0839
     19 C17         7.6753   -3.8888    0.5684 C.ar      1 <0>        -0.1646
     20 C18         8.5578   -5.6046   -1.0090 C.2       1 <0>         0.0132
     21 C19         9.3934   -6.6380   -1.1931 C.2       1 <0>        -0.1654
     22 C20        10.1715   -7.1182   -0.0989 C.2       1 <0>         0.5397
     23 O2         10.8986   -8.0796   -0.2807 O.2       1 <0>        -0.5350
     24 N2         10.1411   -6.5631    1.1174 N.am      1 <0>        -0.6244
     25 H1         10.6960   -6.9229    1.8270 H         1 <0>         0.4194
     26 C21         9.6277   -7.3619   -2.4971 C.3       1 <0>        -0.0269
     27 S1          8.2547   -7.0584   -3.6428 S.3       1 <0>        -0.2407
     28 C22         8.0142   -5.2621   -3.4584 C.3       1 <0>        -0.0858
     29 C23         7.6192   -5.0003   -2.0122 C.3       1 <0>        -0.0916
     30 H2         -0.9025    1.5903   -0.6914 H         1 <0>         0.1182
     31 H3         -0.5629   -0.7942   -1.1971 H         1 <0>         0.1207
     32 H4          1.6829   -1.7848   -1.0185 H         1 <0>         0.1214
     33 H5          3.2495    2.0084    0.1853 H         1 <0>         0.1220
     34 H6          0.9996    2.9890    0.0033 H         1 <0>         0.1208
     35 H7          5.7208    0.3431   -0.8734 H         1 <0>         0.0661
     36 H8          4.7231    1.3491    0.2082 H         1 <0>         0.0942
     37 H9          6.7081    0.3181    1.3696 H         1 <0>         0.0856
     38 H10         5.1506   -0.1674    2.0829 H         1 <0>         0.0811
     39 H11         6.7432   -1.7877    0.0440 H         1 <0>         0.0742
     40 H12         5.0734   -3.5558    0.5722 H         1 <0>         0.0815
     41 H13         4.2046   -2.4092    1.6214 H         1 <0>         0.0821
     42 H14         3.1188   -2.4508   -0.5636 H         1 <0>         0.0912
     43 H15         4.6735   -2.1374   -1.3772 H         1 <0>         0.0635
     44 H16         8.4282   -3.3438    3.8190 H         1 <0>         0.1433
     45 H17         9.9045   -5.2641    3.4218 H         1 <0>         0.1447
     46 H18         7.0493   -3.5033   -0.2227 H         1 <0>         0.1444
     47 H19        10.5561   -7.0072   -2.9448 H         1 <0>         0.1033
     48 H20         9.7083   -8.4320   -2.3062 H         1 <0>         0.1281
     49 H21         8.9420   -4.7386   -3.6894 H         1 <0>         0.0914
     50 H22         7.2214   -4.9242   -4.1257 H         1 <0>         0.1191
     51 H23         6.6219   -5.4070   -1.8448 H         1 <0>         0.1037
     52 H24         7.5839   -3.9229   -1.8507 H         1 <0>         0.0937
@<TRIPOS>BOND
     1    1    6 ar
     2    1    2 ar
     3    1   30 1
     4    2    3 ar
     5    2   31 1
     6    3    4 ar
     7    3   32 1
     8    4    5 ar
     9    4    7 1
    10    5    6 ar
    11    5   33 1
    12    6   34 1
    13    7   12 1
    14    7    8 1
    15    8    9 1
    16    8   35 1
    17    8   36 1
    18    9   10 1
    19    9   37 1
    20    9   38 1
    21   10   11 1
    22   10   13 1
    23   10   39 1
    24   11   12 1
    25   11   40 1
    26   11   41 1
    27   12   42 1
    28   12   43 1
    29   13   14 1
    30   14   19 ar
    31   14   15 ar
    32   15   16 ar
    33   15   44 1
    34   16   17 ar
    35   16   45 1
    36   17   24 1
    37   17   18 ar
    38   18   19 ar
    39   18   20 1
    40   19   46 1
    41   20   29 1
    42   20   21 2
    43   21   22 1
    44   21   26 1
    45   22   23 2
    46   22   24 am
    47   24   25 1
    48   26   27 1
    49   26   47 1
    50   26   48 1
    51   27   28 1
    52   28   29 1
    53   28   49 1
    54   28   50 1
    55   29   51 1
    56   29   52 1
@<TRIPOS>MOLECULE
CHEMBL488665
   35    37     0     0     0
SMALL
USER_CHARGES

@<TRIPOS>ATOM
      1 C1         -0.0167    1.3769    0.0096 C.ar      1 <0>        -0.0966
      2 C2          1.1632    2.0980    0.0022 C.ar      1 <0>        -0.0814
      3 C3          2.3901    1.4397   -0.0135 C.ar      1 <0>        -0.0822
      4 C4          2.4203    0.0291   -0.0214 C.ar      1 <0>         0.0952
      5 C5          1.2109   -0.6850   -0.0132 C.ar      1 <0>         0.0483
      6 C6          0.0021   -0.0041    0.0020 C.ar      1 <0>        -0.0839
      7 N1          1.5594   -2.0218   -0.0239 N.pl3     1 <0>        -0.5908
      8 H1          0.9495   -2.7761   -0.0221 H         1 <0>         0.4241
      9 C7          2.9166   -2.0818   -0.0377 C.2       1 <0>         0.2590
     10 N2          3.4163   -0.8785   -0.0362 N.2       1 <0>        -0.4408
     11 C8          3.7253   -3.3533   -0.0521 C.3       1 <0>        -0.0222
     12 C9          2.9912   -4.4170   -0.8736 C.3       1 <0>        -0.1391
     13 C10         3.7819   -5.7273   -0.8170 C.3       1 <0>        -0.1441
     14 C11         3.9622   -6.1451    0.6440 C.3       1 <0>        -0.0112
     15 N3          4.6932   -5.0991    1.3692 N.4       1 <0>        -0.5023
     16 C12         3.9078   -3.8591    1.3805 C.3       1 <0>        -0.0033
     17 C13         3.6468    2.2101   -0.0224 C.2       1 <0>         0.5581
     18 O1          4.7155    1.6299   -0.0361 O.2       1 <0>        -0.5163
     19 N4          3.6115    3.5573   -0.0152 N.am      1 <0>        -0.8507
     20 H2         -0.9621    1.8987    0.0260 H         1 <0>         0.1465
     21 H3          1.1329    3.1775    0.0083 H         1 <0>         0.1414
     22 H4         -0.9266   -0.5554    0.0083 H         1 <0>         0.1343
     23 H5          4.7014   -3.1589   -0.4965 H         1 <0>         0.1327
     24 H6          1.9952   -4.5742   -0.4595 H         1 <0>         0.0813
     25 H7          2.9087   -4.0855   -1.9086 H         1 <0>         0.1038
     26 H8          3.2373   -6.5045   -1.3532 H         1 <0>         0.1192
     27 H9          4.7592   -5.5828   -1.2775 H         1 <0>         0.0960
     28 H10         2.9844   -6.2896    1.1035 H         1 <0>         0.1312
     29 H11         4.5246   -7.0778    0.6879 H         1 <0>         0.1387
     30 H12         4.8571   -5.4008    2.3179 H         1 <0>         0.4367
     31 H13         4.4300   -3.1041    1.9682 H         1 <0>         0.1446
     32 H14         2.9311   -4.0523    1.8243 H         1 <0>         0.1319
     33 H15         2.7590    4.0201   -0.0042 H         1 <0>         0.4009
     34 H16         4.4385    4.0642   -0.0210 H         1 <0>         0.4092
     35 H17         5.5780   -4.9314    0.9141 H         1 <0>         0.4322
@<TRIPOS>BOND
     1    1    6 ar
     2    1    2 ar
     3    1   20 1
     4    2    3 ar
     5    2   21 1
     6    3    4 ar
     7    3   17 1
     8    4   10 1
     9    4    5 ar
    10    5    6 ar
    11    5    7 1
    12    6   22 1
    13    7    8 1
    14    7    9 1
    15    9   10 2
    16    9   11 1
    17   11   16 1
    18   11   12 1
    19   11   23 1
    20   12   13 1
    21   12   24 1
    22   12   25 1
    23   13   14 1
    24   13   26 1
    25   13   27 1
    26   14   15 1
    27   14   28 1
    28   14   29 1
    29   15   16 1
    30   15   30 1
    31   15   35 1
    32   16   31 1
    33   16   32 1
    34   17   18 2
    35   17   19 am
    36   19   33 1
    37   19   34 1
@<TRIPOS>MOLECULE
CHEMBL488665__1
   35    37     0     0     0
SMALL
USER_CHARGES

@<TRIPOS>ATOM
      1 C1         -0.0167    1.3769    0.0096 C.ar      1 <0>        -0.0966
      2 C2          1.1632    2.0980    0.0022 C.ar      1 <0>        -0.0814
      3 C3          2.3901    1.4397   -0.0135 C.ar      1 <0>        -0.0822
      4 C4          2.4203    0.0291   -0.0214 C.ar      1 <0>         0.0951
      5 C5          1.2109   -0.6850   -0.0132 C.ar      1 <0>         0.0484
      6 C6          0.0021   -0.0041    0.0020 C.ar      1 <0>        -0.0839
      7 N1          1.5594   -2.0218   -0.0239 N.pl3     1 <0>        -0.5908
      8 H1          0.9495   -2.7761   -0.0221 H         1 <0>         0.4241
      9 C7          2.9166   -2.0818   -0.0377 C.2       1 <0>         0.2590
     10 N2          3.4163   -0.8785   -0.0362 N.2       1 <0>        -0.4408
     11 C8          3.7253   -3.3533   -0.0521 C.3       1 <0>        -0.0222
     12 C9          3.0076   -4.4253    0.7731 C.3       1 <0>        -0.1391
     13 C10         3.7968   -5.7348    0.6877 C.3       1 <0>        -0.1441
     14 C11         3.9480   -6.1380   -0.7807 C.3       1 <0>        -0.0112
     15 N3          4.6645   -5.0847   -1.5098 N.4       1 <0>        -0.5023
     16 C12         3.8791   -3.8448   -1.4930 C.3       1 <0>        -0.0034
     17 C13         3.6468    2.2101   -0.0224 C.2       1 <0>         0.5581
     18 O1          4.7155    1.6299   -0.0361 O.2       1 <0>        -0.5163
     19 N4          3.6115    3.5573   -0.0152 N.am      1 <0>        -0.8507
     20 H2         -0.9621    1.8987    0.0260 H         1 <0>         0.1465
     21 H3          1.1329    3.1775    0.0083 H         1 <0>         0.1414
     22 H4         -0.9266   -0.5554    0.0083 H         1 <0>         0.1343
     23 H5          4.7101   -3.1632    0.3747 H         1 <0>         0.1327
     24 H6          2.9457   -4.1041    1.8129 H         1 <0>         0.1038
     25 H7          2.0035   -4.5784    0.3774 H         1 <0>         0.0813
     26 H8          4.7831   -5.5949    1.1301 H         1 <0>         0.0960
     27 H9          3.2630   -6.5174    1.2269 H         1 <0>         0.1192
     28 H10         4.5094   -7.0701   -0.8451 H         1 <0>         0.1387
     29 H11         2.9612   -6.2779   -1.2220 H         1 <0>         0.1312
     30 H12         5.5582   -4.9214   -1.0707 H         1 <0>         0.4322
     31 H13         2.8938   -4.0335   -1.9192 H         1 <0>         0.1319
     32 H14         4.3896   -3.0838   -2.0834 H         1 <0>         0.1446
     33 H15         2.7590    4.0201   -0.0042 H         1 <0>         0.4009
     34 H16         4.4385    4.0642   -0.0210 H         1 <0>         0.4092
     35 H17         4.8095   -5.3769   -2.4646 H         1 <0>         0.4367
@<TRIPOS>BOND
     1    1    6 ar
     2    1    2 ar
     3    1   20 1
     4    2    3 ar
     5    2   21 1
     6    3    4 ar
     7    3   17 1
     8    4   10 1
     9    4    5 ar
    10    5    6 ar
    11    5    7 1
    12    6   22 1
    13    7    8 1
    14    7    9 1
    15    9   10 2
    16    9   11 1
    17   11   16 1
    18   11   12 1
    19   11   23 1
    20   12   13 1
    21   12   24 1
    22   12   25 1
    23   13   14 1
    24   13   26 1
    25   13   27 1
    26   14   15 1
    27   14   28 1
    28   14   29 1
    29   15   16 1
    30   15   30 1
    31   15   35 1
    32   16   31 1
    33   16   32 1
    34   17   18 2
    35   17   19 am
    36   19   33 1
    37   19   34 1
@<TRIPOS>MOLECULE
CHEMBL188308
   38    41     0     0     0
SMALL
USER_CHARGES

@<TRIPOS>ATOM
      1 C1         -0.0167    1.3781    0.0096 C.ar      1 <0>        -0.1201
      2 C2          1.1709    2.0855    0.0021 C.ar      1 <0>        -0.1155
      3 C3          2.3773    1.4107   -0.0130 C.ar      1 <0>        -0.1069
      4 C4          2.3960    0.0285   -0.0201 C.ar      1 <0>        -0.1066
      5 C5          1.2084   -0.6789   -0.0117 C.ar      1 <0>        -0.1114
      6 C6          0.0021   -0.0041    0.0020 C.ar      1 <0>        -0.1162
      7 C7          3.7112   -0.7071   -0.0376 C.3       1 <0>         0.2251
      8 C8          4.0743   -1.0533   -1.4586 C.2       1 <0>        -0.1871
      9 C9          3.8201   -2.2079   -2.0890 C.2       1 <0>         0.0687
     10 N1          4.2955   -2.1588   -3.3749 N.pl3     1 <0>        -0.4812
     11 C10         4.9549   -0.9628   -3.5776 C.ar      1 <0>         0.1339
     12 C11         4.7674   -0.1896   -2.4180 C.ar      1 <0>        -0.1012
     13 C12         5.2017    1.1364   -2.3802 C.ar      1 <0>        -0.0386
     14 C13         5.8386    1.6796   -3.4759 C.ar      1 <0>        -0.1539
     15 C14         6.0782    0.9138   -4.6000 C.ar      1 <0>        -0.0299
     16 C15         5.6828   -0.4286   -4.6511 C.ar      1 <0>        -0.1477
     17 C16         6.0841   -1.2405   -5.8035 C.2       1 <0>         0.5628
     18 O1          7.1377   -0.9643   -6.3441 O.2       1 <0>        -0.5359
     19 N2          5.3776   -2.2681   -6.3097 N.am      1 <0>        -0.7222
     20 C17         4.0836   -2.6369   -5.7862 C.3       1 <0>         0.0963
     21 C18         4.1424   -3.1853   -4.3846 C.3       1 <0>         0.0856
     22 O2          3.5962   -1.9067    0.7305 O.3       1 <0>        -0.5455
     23 H1         -0.9591    1.9053    0.0259 H         1 <0>         0.1222
     24 H2          1.1563    3.1654    0.0076 H         1 <0>         0.1238
     25 H3          3.3051    1.9634   -0.0196 H         1 <0>         0.1222
     26 H4          1.2231   -1.7588   -0.0176 H         1 <0>         0.1171
     27 H5         -0.9258   -0.5567    0.0082 H         1 <0>         0.1225
     28 H6          4.4875   -0.0738    0.3918 H         1 <0>         0.1158
     29 H7          3.3145   -3.0545   -1.6486 H         1 <0>         0.1693
     30 H8          5.0392    1.7350   -1.4960 H         1 <0>         0.1285
     31 H9          6.1524    2.7128   -3.4551 H         1 <0>         0.1345
     32 H10         6.5829    1.3537   -5.4475 H         1 <0>         0.1369
     33 H11         5.7486   -2.7757   -7.0483 H         1 <0>         0.4093
     34 H12         3.4405   -1.7568   -5.7910 H         1 <0>         0.0783
     35 H13         3.6444   -3.3915   -6.4387 H         1 <0>         0.1114
     36 H14         4.9839   -3.8744   -4.3135 H         1 <0>         0.0797
     37 H15         3.2236   -3.7372   -4.1859 H         1 <0>         0.1049
     38 H16         2.9224   -2.5191    0.4049 H         1 <0>         0.3714
@<TRIPOS>BOND
     1    1    6 ar
     2    1    2 ar
     3    1   23 1
     4    2    3 ar
     5    2   24 1
     6    3    4 ar
     7    3   25 1
     8    4    5 ar
     9    4    7 1
    10    5    6 ar
    11    5   26 1
    12    6   27 1
    13    7    8 1
    14    7   22 1
    15    7   28 1
    16    8   12 1
    17    8    9 2
    18    9   10 1
    19    9   29 1
    20   10   21 1
    21   10   11 1
    22   11   16 ar
    23   11   12 ar
    24   12   13 ar
    25   13   14 ar
    26   13   30 1
    27   14   15 ar
    28   14   31 1
    29   15   16 ar
    30   15   32 1
    31   16   17 1
    32   17   18 2
    33   17   19 am
    34   19   20 1
    35   19   33 1
    36   20   21 1
    37   20   34 1
    38   20   35 1
    39   21   36 1
    40   21   37 1
    41   22   38 1
@<TRIPOS>MOLECULE
CHEMBL188308__1
   38    41     0     0     0
SMALL
USER_CHARGES

@<TRIPOS>ATOM
      1 C1         -0.0167    1.3781    0.0096 C.ar      1 <0>        -0.1194
      2 C2          1.1709    2.0855    0.0021 C.ar      1 <0>        -0.1159
      3 C3          2.3773    1.4107   -0.0130 C.ar      1 <0>        -0.1058
      4 C4          2.3960    0.0285   -0.0201 C.ar      1 <0>        -0.1077
      5 C5          1.2084   -0.6789   -0.0117 C.ar      1 <0>        -0.1108
      6 C6          0.0021   -0.0041    0.0020 C.ar      1 <0>        -0.1168
      7 C7          3.7112   -0.7071   -0.0376 C.3       1 <0>         0.2256
      8 C8          4.0438   -1.1746    1.3559 C.2       1 <0>        -0.1870
      9 C9          3.7874   -2.3828    1.8752 C.2       1 <0>         0.0681
     10 N1          4.2366   -2.4455    3.1700 N.pl3     1 <0>        -0.4812
     11 C10         4.7357   -1.2142    3.5454 C.ar      1 <0>         0.1339
     12 C11         4.7152   -0.3973    2.4008 C.ar      1 <0>        -0.1012
     13 C12         5.2950    0.8721    2.4335 C.ar      1 <0>        -0.0385
     14 C13         5.8667    1.3337    3.6002 C.ar      1 <0>        -0.1540
     15 C14         5.8438    0.5632    4.7462 C.ar      1 <0>        -0.0299
     16 C15         5.2389   -0.6999    4.7495 C.ar      1 <0>        -0.1478
     17 C16         5.1113   -1.4194    6.0199 C.2       1 <0>         0.5628
     18 O1          4.9848   -0.7547    7.0303 O.2       1 <0>        -0.5362
     19 N2          5.1226   -2.7584    6.1555 N.am      1 <0>        -0.7222
     20 C17         5.3338   -3.6383    5.0305 C.3       1 <0>         0.0960
     21 C18         4.2068   -3.6089    4.0315 C.3       1 <0>         0.0856
     22 O2          3.6140   -1.8361   -0.9083 O.3       1 <0>        -0.5457
     23 H1         -0.9591    1.9053    0.0259 H         1 <0>         0.1223
     24 H2          1.1563    3.1654    0.0076 H         1 <0>         0.1240
     25 H3          3.3051    1.9634   -0.0196 H         1 <0>         0.1228
     26 H4          1.2231   -1.7588   -0.0176 H         1 <0>         0.1163
     27 H5         -0.9258   -0.5567    0.0082 H         1 <0>         0.1223
     28 H6          4.4960   -0.0399   -0.3940 H         1 <0>         0.1156
     29 H7          3.2979   -3.1900    1.3508 H         1 <0>         0.1693
     30 H8          5.2961    1.4903    1.5479 H         1 <0>         0.1289
     31 H9          6.3368    2.3058    3.6180 H         1 <0>         0.1345
     32 H10         6.2917    0.9422    5.6529 H         1 <0>         0.1368
     33 H11         4.9852   -3.1436    7.0350 H         1 <0>         0.4092
     34 H12         6.2556   -3.3472    4.5268 H         1 <0>         0.0788
     35 H13         5.4470   -4.6575    5.3999 H         1 <0>         0.1115
     36 H14         3.2601   -3.6203    4.5716 H         1 <0>         0.0791
     37 H15         4.2644   -4.5043    3.4125 H         1 <0>         0.1054
     38 H16         2.9338   -2.4736   -0.6512 H         1 <0>         0.3715
@<TRIPOS>BOND
     1    1    6 ar
     2    1    2 ar
     3    1   23 1
     4    2    3 ar
     5    2   24 1
     6    3    4 ar
     7    3   25 1
     8    4    5 ar
     9    4    7 1
    10    5    6 ar
    11    5   26 1
    12    6   27 1
    13    7    8 1
    14    7   22 1
    15    7   28 1
    16    8   12 1
    17    8    9 2
    18    9   10 1
    19    9   29 1
    20   10   21 1
    21   10   11 1
    22   11   16 ar
    23   11   12 ar
    24   12   13 ar
    25   13   14 ar
    26   13   30 1
    27   14   15 ar
    28   14   31 1
    29   15   16 ar
    30   15   32 1
    31   16   17 1
    32   17   18 2
    33   17   19 am
    34   19   20 1
    35   19   33 1
    36   20   21 1
    37   20   34 1
    38   20   35 1
    39   21   36 1
    40   21   37 1
    41   22   38 1
@<TRIPOS>MOLECULE
CHEMBL245559
   65    71     0     0     0
SMALL
USER_CHARGES

@<TRIPOS>ATOM
      1 C1         -0.0169    1.3927    0.0097 C.ar      1 <0>        -0.0558
      2 C2          1.1598    2.1069    0.0023 C.ar      1 <0>        -0.1420
      3 C3          2.3829    1.4423   -0.0133 C.ar      1 <0>         0.1525
      4 C4          2.4066    0.0379   -0.0216 C.ar      1 <0>        -0.1123
      5 C5          1.2151   -0.6819   -0.0140 C.ar      1 <0>        -0.0116
      6 C6          0.0021   -0.0041    0.0020 C.ar      1 <0>        -0.0546
      7 C7         -1.2726   -0.7637    0.0115 C.2       1 <0>         0.1137
      8 C8         -2.4858   -0.1361   -0.0790 C.2       1 <0>        -0.2315
      9 S1         -3.5881   -1.5393   -0.0158 S.3       1 <0>         0.1421
     10 C9         -2.4239   -2.7470    0.1156 C.2       1 <0>         0.0563
     11 N1         -1.2959   -2.0857    0.1024 N.2       1 <0>        -0.4989
     12 C10        -2.6314   -4.2362    0.2182 C.3       1 <0>         0.1476
     13 N2         -2.7494   -4.6179    1.6318 N.3       1 <0>        -0.6818
     14 C11        -2.9531   -6.0660    1.7708 C.3       1 <0>         0.2171
     15 C12        -3.9773   -6.3337    2.8767 C.3       1 <0>         0.0652
     16 H1         -4.1592   -7.4057    2.9530 H         1 <0>         0.0767
     17 C13        -3.4281   -5.8117    4.2079 C.3       1 <0>         0.0839
     18 H2         -3.2927   -4.7318    4.1481 H         1 <0>         0.0820
     19 C14        -2.0799   -6.4822    4.4894 C.3       1 <0>         0.0922
     20 H3         -2.2235   -7.5572    4.5983 H         1 <0>         0.0752
     21 C15        -1.1290   -6.2088    3.3213 C.3       1 <0>         0.0982
     22 H4         -0.9540   -5.1361    3.2384 H         1 <0>         0.0785
     23 O1         -1.7136   -6.6912    2.1099 O.3       1 <0>        -0.3717
     24 C16         0.2004   -6.9251    3.5671 C.3       1 <0>         0.0901
     25 O2          1.1271   -6.5766    2.5366 O.3       1 <0>        -0.5619
     26 O3         -1.5243   -5.9502    5.6937 O.3       1 <0>        -0.5520
     27 O4         -4.3464   -6.1210    5.2582 O.3       1 <0>        -0.5629
     28 O5         -5.2005   -5.6627    2.5673 O.3       1 <0>        -0.5436
     29 C17         3.8255   -0.3556   -0.0383 C.ar      1 <0>        -0.0311
     30 C18         4.4870   -1.5833   -0.0531 C.ar      1 <0>        -0.0824
     31 C19         5.8936   -1.6131   -0.0668 C.ar      1 <0>        -0.1589
     32 C20         6.6219   -0.4251   -0.0647 C.ar      1 <0>         0.0100
     33 C21         5.9651    0.7899   -0.0497 C.ar      1 <0>        -0.1040
     34 C22         4.5708    0.8389   -0.0375 C.ar      1 <0>         0.1829
     35 N3          3.6889    1.9005   -0.0227 N.pl3     1 <0>        -0.6072
     36 H5          3.9477    2.8353   -0.0194 H         1 <0>         0.4239
     37 C23         6.9757    1.9181   -0.0500 C.3       1 <0>        -0.0797
     38 C24         8.3087    1.2669    0.3748 C.3       1 <0>        -0.1191
     39 C25         8.1195   -0.1964   -0.0768 C.3       1 <0>        -0.0871
     40 C26         6.2679   -3.0412   -0.0807 C.2       1 <0>         0.5823
     41 O6          7.4017   -3.4771   -0.0945 O.2       1 <0>        -0.4646
     42 N4          5.1430   -3.7787   -0.0751 N.am      1 <0>        -0.6809
     43 C27         4.0512   -2.9929   -0.0587 C.2       1 <0>         0.5748
     44 O7          2.8995   -3.3792   -0.0500 O.2       1 <0>        -0.4442
     45 H6         -0.9615    1.9160    0.0261 H         1 <0>         0.1354
     46 H7          1.1340    3.1866    0.0082 H         1 <0>         0.1333
     47 H8          1.2333   -1.7617   -0.0202 H         1 <0>         0.1524
     48 H9         -2.7133    0.9162   -0.1645 H         1 <0>         0.1975
     49 H10        -3.5436   -4.5131   -0.3103 H         1 <0>         0.1013
     50 H11        -1.7818   -4.7530   -0.2281 H         1 <0>         0.0758
     51 H12        -1.9432   -4.3141    2.1569 H         1 <0>         0.3558
     52 H13        -3.3201   -6.4736    0.8288 H         1 <0>         0.1188
     53 H14         0.6023   -6.6234    4.5344 H         1 <0>         0.0742
     54 H15         0.0389   -8.0031    3.5611 H         1 <0>         0.0551
     55 H16         1.9937   -6.9956    2.6288 H         1 <0>         0.3823
     56 H17        -2.0779   -6.0844    6.4751 H         1 <0>         0.3933
     57 H18        -5.2240   -5.7324    5.1404 H         1 <0>         0.3933
     58 H19        -5.6023   -5.9419    1.7333 H         1 <0>         0.3827
     59 H20         7.0651    2.3455   -1.0487 H         1 <0>         0.0872
     60 H21         6.6850    2.6864    0.6664 H         1 <0>         0.0784
     61 H22         9.1483    1.7277   -0.1455 H         1 <0>         0.0852
     62 H23         8.4416    1.3251    1.4551 H         1 <0>         0.0782
     63 H24         8.6111   -0.8741    0.6211 H         1 <0>         0.0903
     64 H25         8.5152   -0.3359   -1.0828 H         1 <0>         0.0938
     65 H26         5.1218   -4.7485   -0.0823 H         1 <0>         0.4304
@<TRIPOS>BOND
     1    1    6 ar
     2    1    2 ar
     3    1   45 1
     4    2    3 ar
     5    2   46 1
     6    3   35 1
     7    3    4 ar
     8    4    5 ar
     9    4   29 1
    10    5    6 ar
    11    5   47 1
    12    6    7 1
    13    7   11 1
    14    7    8 2
    15    8    9 1
    16    8   48 1
    17    9   10 1
    18   10   11 2
    19   10   12 1
    20   12   13 1
    21   12   49 1
    22   12   50 1
    23   13   14 1
    24   13   51 1
    25   14   23 1
    26   14   15 1
    27   14   52 1
    28   15   16 1
    29   15   17 1
    30   15   28 1
    31   17   18 1
    32   17   19 1
    33   17   27 1
    34   19   20 1
    35   19   21 1
    36   19   26 1
    37   21   22 1
    38   21   23 1
    39   21   24 1
    40   24   25 1
    41   24   53 1
    42   24   54 1
    43   25   55 1
    44   26   56 1
    45   27   57 1
    46   28   58 1
    47   29   34 ar
    48   29   30 ar
    49   30   43 1
    50   30   31 ar
    51   31   32 ar
    52   31   40 1
    53   32   39 1
    54   32   33 ar
    55   33   34 ar
    56   33   37 1
    57   34   35 1
    58   35   36 1
    59   37   38 1
    60   37   59 1
    61   37   60 1
    62   38   39 1
    63   38   61 1
    64   38   62 1
    65   39   63 1
    66   39   64 1
    67   40   41 2
    68   40   42 am
    69   42   43 am
    70   42   65 1
    71   43   44 2
@<TRIPOS>MOLECULE
CHEMBL245559__1
   65    71     0     0     0
SMALL
USER_CHARGES

@<TRIPOS>ATOM
      1 C1         -0.0169    1.3927    0.0097 C.ar      1 <0>        -0.0558
      2 C2          1.1598    2.1069    0.0023 C.ar      1 <0>        -0.1413
      3 C3          2.3829    1.4423   -0.0133 C.ar      1 <0>         0.1527
      4 C4          2.4066    0.0379   -0.0216 C.ar      1 <0>        -0.1126
      5 C5          1.2151   -0.6819   -0.0140 C.ar      1 <0>        -0.0129
      6 C6          0.0021   -0.0041    0.0020 C.ar      1 <0>        -0.0535
      7 C7         -1.2726   -0.7637    0.0115 C.2       1 <0>         0.1118
      8 C8         -2.4858   -0.1361   -0.0790 C.2       1 <0>        -0.2310
      9 S1         -3.5881   -1.5393   -0.0158 S.3       1 <0>         0.1540
     10 C9         -2.4239   -2.7470    0.1156 C.2       1 <0>         0.0511
     11 N1         -1.2959   -2.0857    0.1024 N.2       1 <0>        -0.5008
     12 C10        -2.6314   -4.2362    0.2182 C.3       1 <0>         0.1532
     13 N2         -2.7494   -4.6179    1.6318 N.3       1 <0>        -0.6699
     14 C11        -2.9531   -6.0660    1.7708 C.3       1 <0>         0.2350
     15 C12        -2.2445   -6.5624    3.0338 C.3       1 <0>         0.0374
     16 H1         -2.6260   -6.0235    3.9011 H         1 <0>         0.0865
     17 C13        -2.5115   -8.0610    3.2042 C.3       1 <0>         0.0862
     18 H2         -2.0864   -8.6053    2.3609 H         1 <0>         0.0756
     19 C14        -4.0242   -8.2963    3.2559 C.3       1 <0>         0.0915
     20 H3         -4.4417   -7.7924    4.1276 H         1 <0>         0.0788
     21 C15        -4.6641   -7.7330    1.9842 C.3       1 <0>         0.1054
     22 H4         -4.2761   -8.2651    1.1157 H         1 <0>         0.0793
     23 O1         -4.3514   -6.3432    1.8706 O.3       1 <0>        -0.3460
     24 C16        -6.1821   -7.9105    2.0552 C.3       1 <0>         0.0915
     25 O2         -6.7688   -7.4920    0.8212 O.3       1 <0>        -0.5663
     26 O3         -4.2868   -9.6982    3.3433 O.3       1 <0>        -0.5512
     27 O4         -1.9132   -8.5181    4.4187 O.3       1 <0>        -0.5579
     28 O5         -0.8386   -6.3374    2.9123 O.3       1 <0>        -0.5560
     29 C17         3.8255   -0.3556   -0.0383 C.ar      1 <0>        -0.0305
     30 C18         4.4870   -1.5833   -0.0531 C.ar      1 <0>        -0.0841
     31 C19         5.8936   -1.6131   -0.0668 C.ar      1 <0>        -0.1583
     32 C20         6.6219   -0.4251   -0.0647 C.ar      1 <0>         0.0102
     33 C21         5.9651    0.7899   -0.0497 C.ar      1 <0>        -0.1027
     34 C22         4.5708    0.8389   -0.0375 C.ar      1 <0>         0.1829
     35 N3          3.6889    1.9005   -0.0227 N.pl3     1 <0>        -0.6071
     36 H5          3.9477    2.8353   -0.0194 H         1 <0>         0.4242
     37 C23         6.9757    1.9181   -0.0500 C.3       1 <0>        -0.0800
     38 C24         8.3087    1.2669    0.3748 C.3       1 <0>        -0.1192
     39 C25         8.1195   -0.1964   -0.0768 C.3       1 <0>        -0.0874
     40 C26         6.2679   -3.0412   -0.0807 C.2       1 <0>         0.5819
     41 O6          7.4017   -3.4771   -0.0945 O.2       1 <0>        -0.4626
     42 N4          5.1430   -3.7787   -0.0751 N.am      1 <0>        -0.6814
     43 C27         4.0512   -2.9929   -0.0587 C.2       1 <0>         0.5779
     44 O7          2.8995   -3.3792   -0.0500 O.2       1 <0>        -0.4515
     45 H6         -0.9615    1.9160    0.0261 H         1 <0>         0.1358
     46 H7          1.1340    3.1866    0.0082 H         1 <0>         0.1336
     47 H8          1.2333   -1.7617   -0.0202 H         1 <0>         0.1517
     48 H9         -2.7133    0.9162   -0.1645 H         1 <0>         0.1980
     49 H10        -3.5436   -4.5131   -0.3103 H         1 <0>         0.1083
     50 H11        -1.7818   -4.7530   -0.2281 H         1 <0>         0.0731
     51 H12        -1.9432   -4.3141    2.1569 H         1 <0>         0.3561
     52 H13        -2.5427   -6.5761    0.8993 H         1 <0>         0.0619
     53 H14        -6.4173   -8.9601    2.2317 H         1 <0>         0.0758
     54 H15        -6.5809   -7.3067    2.8703 H         1 <0>         0.0568
     55 H16        -7.7317   -7.5770    0.7947 H         1 <0>         0.3840
     56 H17        -3.9058  -10.1217    4.1247 H         1 <0>         0.3938
     57 H18        -0.9550   -8.3936    4.4563 H         1 <0>         0.3940
     58 H19        -0.5975   -5.4080    2.7969 H         1 <0>         0.3849
     59 H20         7.0651    2.3455   -1.0487 H         1 <0>         0.0876
     60 H21         6.6850    2.6864    0.6664 H         1 <0>         0.0787
     61 H22         9.1483    1.7277   -0.1455 H         1 <0>         0.0855
     62 H23         8.4416    1.3251    1.4551 H         1 <0>         0.0784
     63 H24         8.6111   -0.8741    0.6211 H         1 <0>         0.0905
     64 H25         8.5152   -0.3359   -1.0828 H         1 <0>         0.0941
     65 H26         5.1218   -4.7485   -0.0823 H         1 <0>         0.4306
@<TRIPOS>BOND
     1    1    6 ar
     2    1    2 ar
     3    1   45 1
     4    2    3 ar
     5    2   46 1
     6    3   35 1
     7    3    4 ar
     8    4    5 ar
     9    4   29 1
    10    5    6 ar
    11    5   47 1
    12    6    7 1
    13    7   11 1
    14    7    8 2
    15    8    9 1
    16    8   48 1
    17    9   10 1
    18   10   11 2
    19   10   12 1
    20   12   13 1
    21   12   49 1
    22   12   50 1
    23   13   14 1
    24   13   51 1
    25   14   23 1
    26   14   15 1
    27   14   52 1
    28   15   16 1
    29   15   17 1
    30   15   28 1
    31   17   18 1
    32   17   19 1
    33   17   27 1
    34   19   20 1
    35   19   21 1
    36   19   26 1
    37   21   22 1
    38   21   23 1
    39   21   24 1
    40   24   25 1
    41   24   53 1
    42   24   54 1
    43   25   55 1
    44   26   56 1
    45   27   57 1
    46   28   58 1
    47   29   34 ar
    48   29   30 ar
    49   30   43 1
    50   30   31 ar
    51   31   32 ar
    52   31   40 1
    53   32   39 1
    54   32   33 ar
    55   33   34 ar
    56   33   37 1
    57   34   35 1
    58   35   36 1
    59   37   38 1
    60   37   59 1
    61   37   60 1
    62   38   39 1
    63   38   61 1
    64   38   62 1
    65   39   63 1
    66   39   64 1
    67   40   41 2
    68   40   42 am
    69   42   43 am
    70   42   65 1
    71   43   44 2
@<TRIPOS>MOLECULE
CHEMBL426070
   45    49     0     0     0
SMALL
USER_CHARGES

@<TRIPOS>ATOM
      1 C1          5.7432   -6.5410    2.0127 C.2       1 <0>        -0.1986
      2 C2          6.2129   -5.6513    1.0263 C.2       1 <0>        -0.1999
      3 C3          5.9263   -4.4007    1.4413 C.2       1 <0>        -0.0137
      4 N1          5.2970   -4.4856    2.6478 N.pl3     1 <0>        -0.4453
      5 C4          5.1876   -5.8001    2.9929 C.2       1 <0>        -0.0161
      6 C5          4.8180   -3.3518    3.4423 C.3       1 <0>         0.1469
      7 C6          3.3974   -3.0313    3.0547 C.ar      1 <0>        -0.1088
      8 C7          3.1467   -2.1315    2.0338 C.ar      1 <0>        -0.0925
      9 C8          1.8456   -1.8322    1.6715 C.ar      1 <0>        -0.1111
     10 C9          0.7888   -2.4297    2.3274 C.ar      1 <0>        -0.0855
     11 C10         1.0348   -3.3379    3.3577 C.ar      1 <0>        -0.0290
     12 C11         2.3500   -3.6398    3.7145 C.ar      1 <0>        -0.1015
     13 C12        -0.0930   -3.9820    4.0649 C.2       1 <0>         0.1189
     14 C13        -1.3486   -4.1092    3.5753 C.2       1 <0>        -0.1655
     15 C14        -2.1318   -4.8005    4.5985 C.ar      1 <0>        -0.1162
     16 C15        -3.4872   -5.1227    4.7150 C.ar      1 <0>        -0.0351
     17 C16        -3.9356   -5.7995    5.8287 C.ar      1 <0>        -0.1563
     18 C17        -3.0526   -6.1882    6.8172 C.ar      1 <0>        -0.0276
     19 C18        -1.6897   -5.8886    6.7215 C.ar      1 <0>        -0.1482
     20 C19        -1.2355   -5.1307    5.6312 C.ar      1 <0>         0.1390
     21 N2         -0.0226   -4.5489    5.3203 N.pl3     1 <0>        -0.4774
     22 C20         1.1215   -4.5281    6.2063 C.3       1 <0>         0.0800
     23 C21         0.7445   -4.5136    7.6645 C.3       1 <0>         0.0941
     24 N3          0.3460   -5.8087    8.1636 N.am      1 <0>        -0.7187
     25 C22        -0.7810   -6.4032    7.7492 C.2       1 <0>         0.5616
     26 O1         -1.0633   -7.4691    8.2619 O.2       1 <0>        -0.5383
     27 H1          5.8115   -7.6185    1.9864 H         1 <0>         0.1341
     28 H2          6.7113   -5.9214    0.1070 H         1 <0>         0.1347
     29 H3          6.1558   -3.4890    0.9097 H         1 <0>         0.1590
     30 H4          4.7342   -6.1821    3.8956 H         1 <0>         0.1555
     31 H5          4.8567   -3.6079    4.5011 H         1 <0>         0.0963
     32 H6          5.4503   -2.4840    3.2551 H         1 <0>         0.1007
     33 H7          3.9703   -1.6606    1.5177 H         1 <0>         0.1265
     34 H8          1.6565   -1.1291    0.8738 H         1 <0>         0.1331
     35 H9         -0.2265   -2.1946    2.0441 H         1 <0>         0.1335
     36 H10         2.5470   -4.3450    4.5084 H         1 <0>         0.1247
     37 H11        -1.7034   -3.7660    2.6147 H         1 <0>         0.1558
     38 H12        -4.1801   -4.8421    3.9355 H         1 <0>         0.1326
     39 H13        -4.9864   -6.0275    5.9296 H         1 <0>         0.1348
     40 H14        -3.4195   -6.7312    7.6756 H         1 <0>         0.1373
     41 H15         1.7311   -5.4104    6.0113 H         1 <0>         0.0789
     42 H16         1.7158   -3.6404    5.9896 H         1 <0>         0.1061
     43 H17         1.5991   -4.1633    8.2434 H         1 <0>         0.1112
     44 H18        -0.0804   -3.8152    7.8057 H         1 <0>         0.0798
     45 H19         0.9039   -6.2531    8.8209 H         1 <0>         0.4105
@<TRIPOS>BOND
     1    1    5 2
     2    1    2 1
     3    1   27 1
     4    2    3 2
     5    2   28 1
     6    3    4 1
     7    3   29 1
     8    4    5 1
     9    4    6 1
    10    5   30 1
    11    6    7 1
    12    6   31 1
    13    6   32 1
    14    7   12 ar
    15    7    8 ar
    16    8    9 ar
    17    8   33 1
    18    9   10 ar
    19    9   34 1
    20   10   11 ar
    21   10   35 1
    22   11   12 ar
    23   11   13 1
    24   12   36 1
    25   13   21 1
    26   13   14 2
    27   14   15 1
    28   14   37 1
    29   15   20 ar
    30   15   16 ar
    31   16   17 ar
    32   16   38 1
    33   17   18 ar
    34   17   39 1
    35   18   19 ar
    36   18   40 1
    37   19   25 1
    38   19   20 ar
    39   20   21 1
    40   21   22 1
    41   22   23 1
    42   22   41 1
    43   22   42 1
    44   23   24 1
    45   23   43 1
    46   23   44 1
    47   24   25 am
    48   24   45 1
    49   25   26 2
@<TRIPOS>MOLECULE
CHEMBL471959
   68    71     0     0     0
SMALL
USER_CHARGES

@<TRIPOS>ATOM
      1 C1         -2.7915   -2.5936   -0.3086 C.3       1 <0>        -0.1856
      2 C2         -2.2228   -1.1732   -0.3020 C.3       1 <0>         0.0682
      3 C3         -1.3265   -0.9854   -1.4988 C.2       1 <0>         0.5231
      4 O1         -0.1392   -0.7929   -1.3430 O.2       1 <0>        -0.5071
      5 N1         -1.8442   -1.0313   -2.7423 N.am      1 <0>        -0.6104
      6 C4         -3.2819   -1.2577   -2.9460 C.3       1 <0>         0.0834
      7 C5         -3.8425   -0.1122   -3.7982 C.3       1 <0>         0.0833
      8 N2         -2.9795    0.0636   -4.9747 N.am      1 <0>        -0.6077
      9 C6         -1.5417    0.2900   -4.7709 C.3       1 <0>         0.0987
     10 C7         -0.9821   -0.8498   -3.9186 C.3       1 <0>         0.0998
     11 C8         -3.4972    0.0177   -6.2182 C.2       1 <0>         0.5658
     12 O2         -2.7611    0.0564   -7.1849 O.2       1 <0>        -0.5146
     13 C9         -4.9588   -0.0795   -6.4064 C.ar      1 <0>        -0.1658
     14 C10        -5.8160    0.7586   -5.6898 C.ar      1 <0>        -0.0567
     15 C11        -7.1793    0.6630   -5.8705 C.ar      1 <0>        -0.0990
     16 C12        -7.7014   -0.2612   -6.7595 C.ar      1 <0>        -0.0578
     17 C13        -6.8615   -1.0952   -7.4729 C.ar      1 <0>        -0.1530
     18 C14        -5.4911   -1.0071   -7.3071 C.ar      1 <0>         0.1520
     19 F1         -4.6699   -1.8187   -8.0087 F         1 <0>        -0.1209
     20 C15        -8.1045    1.5672   -5.0975 C.3       1 <0>        -0.0753
     21 C16        -8.3459    2.8511   -5.8938 C.3       1 <0>         0.0558
     22 O3         -9.2232    3.7084   -5.1608 O.3       1 <0>        -0.2782
     23 C17        -9.5413    4.8973   -5.7314 C.ar      1 <0>         0.1894
     24 C18        -9.0259    5.2335   -6.9746 C.ar      1 <0>        -0.2204
     25 C19        -9.3501    6.4440   -7.5538 C.ar      1 <0>        -0.0487
     26 C20       -10.1903    7.3309   -6.9004 C.ar      1 <0>        -0.1664
     27 C21       -10.7116    7.0132   -5.6652 C.ar      1 <0>        -0.0476
     28 C22       -10.3965    5.7891   -5.0701 C.ar      1 <0>        -0.1793
     29 C23       -10.9556    5.4400   -3.7502 C.2       1 <0>         0.5642
     30 O4        -10.6747    4.3760   -3.2331 O.2       1 <0>        -0.5220
     31 N3        -11.7777    6.3005   -3.1176 N.am      1 <0>        -0.8555
     32 O5         -1.4692   -0.9674    0.8945 O.3       1 <0>        -0.2843
     33 C24        -2.1610   -0.5931    2.0027 C.ar      1 <0>         0.1276
     34 C25        -1.4859   -0.3162    3.1827 C.ar      1 <0>        -0.1479
     35 C26        -2.1914    0.0646    4.3077 C.ar      1 <0>        -0.0781
     36 C27        -3.5693    0.1693    4.2585 C.ar      1 <0>        -0.1568
     37 C28        -4.2444   -0.1066    3.0839 C.ar      1 <0>        -0.0787
     38 C29        -3.5430   -0.4817    1.9544 C.ar      1 <0>        -0.2135
     39 H1         -3.4398   -2.7295    0.5570 H         1 <0>         0.0803
     40 H2         -3.3663   -2.7506   -1.2213 H         1 <0>         0.0836
     41 H3         -1.9734   -3.3127   -0.2663 H         1 <0>         0.0781
     42 H4         -3.0409   -0.4541   -0.3443 H         1 <0>         0.0991
     43 H5         -3.4335   -2.2057   -3.4622 H         1 <0>         0.0843
     44 H6         -3.7893   -1.2782   -1.9815 H         1 <0>         0.1030
     45 H7         -4.8546   -0.3573   -4.1202 H         1 <0>         0.1064
     46 H8         -3.8547    0.8071   -3.2127 H         1 <0>         0.0817
     47 H9         -1.0344    0.3106   -5.7354 H         1 <0>         0.1109
     48 H10        -1.3902    1.2380   -4.2548 H         1 <0>         0.0783
     49 H11         0.0290   -0.6012   -3.5963 H         1 <0>         0.1103
     50 H12        -0.9661   -1.7681   -4.5056 H         1 <0>         0.0785
     51 H13        -5.4116    1.4799   -4.9952 H         1 <0>         0.1403
     52 H14        -8.7705   -0.3309   -6.8959 H         1 <0>         0.1423
     53 H15        -7.2757   -1.8143   -8.1642 H         1 <0>         0.1471
     54 H16        -9.0542    1.0588   -4.9312 H         1 <0>         0.0930
     55 H17        -7.6520    1.8149   -4.1373 H         1 <0>         0.0905
     56 H18        -7.3962    3.3595   -6.0601 H         1 <0>         0.0658
     57 H19        -8.7985    2.6034   -6.8540 H         1 <0>         0.0673
     58 H20        -8.3700    4.5475   -7.4899 H         1 <0>         0.1354
     59 H21        -8.9460    6.7013   -8.5217 H         1 <0>         0.1318
     60 H22       -10.4376    8.2759   -7.3613 H         1 <0>         0.1322
     61 H23       -11.3659    7.7078   -5.1594 H         1 <0>         0.1333
     62 H24       -12.0018    7.1493   -3.5302 H         1 <0>         0.3987
     63 H25       -12.1453    6.0710   -2.2498 H         1 <0>         0.4054
     64 H26        -0.4098   -0.3986    3.2218 H         1 <0>         0.1325
     65 H27        -1.6664    0.2803    5.2265 H         1 <0>         0.1311
     66 H28        -4.1190    0.4668    5.1392 H         1 <0>         0.1251
     67 H29        -5.3207   -0.0244    3.0481 H         1 <0>         0.1263
     68 H30        -4.0704   -0.6928    1.0359 H         1 <0>         0.1273
@<TRIPOS>BOND
     1    1    2 1
     2    1   39 1
     3    1   40 1
     4    1   41 1
     5    2    3 1
     6    2   32 1
     7    2   42 1
     8    3    4 2
     9    3    5 am
    10    5   10 1
    11    5    6 1
    12    6    7 1
    13    6   43 1
    14    6   44 1
    15    7    8 1
    16    7   45 1
    17    7   46 1
    18    8    9 1
    19    8   11 am
    20    9   10 1
    21    9   47 1
    22    9   48 1
    23   10   49 1
    24   10   50 1
    25   11   12 2
    26   11   13 1
    27   13   18 ar
    28   13   14 ar
    29   14   15 ar
    30   14   51 1
    31   15   16 ar
    32   15   20 1
    33   16   17 ar
    34   16   52 1
    35   17   18 ar
    36   17   53 1
    37   18   19 1
    38   20   21 1
    39   20   54 1
    40   20   55 1
    41   21   22 1
    42   21   56 1
    43   21   57 1
    44   22   23 1
    45   23   28 ar
    46   23   24 ar
    47   24   25 ar
    48   24   58 1
    49   25   26 ar
    50   25   59 1
    51   26   27 ar
    52   26   60 1
    53   27   28 ar
    54   27   61 1
    55   28   29 1
    56   29   30 2
    57   29   31 am
    58   31   62 1
    59   31   63 1
    60   32   33 1
    61   33   38 ar
    62   33   34 ar
    63   34   35 ar
    64   34   64 1
    65   35   36 ar
    66   35   65 1
    67   36   37 ar
    68   36   66 1
    69   37   38 ar
    70   37   67 1
    71   38   68 1
@<TRIPOS>MOLECULE
CHEMBL471959__1
   68    71     0     0     0
SMALL
USER_CHARGES

@<TRIPOS>ATOM
      1 C1         -0.7904   -2.3439    2.6547 C.3       1 <0>        -0.1810
      2 C2         -1.6295   -1.0919    2.3918 C.3       1 <0>         0.0676
      3 C3         -0.8800   -0.1704    1.4644 C.2       1 <0>         0.5231
      4 O1         -1.2627   -0.0152    0.3240 O.2       1 <0>        -0.5066
      5 N1          0.2155    0.4812    1.9021 N.am      1 <0>        -0.6108
      6 C4          0.6490    0.3597    3.3011 C.3       1 <0>         0.0843
      7 C5          2.1070   -0.1155    3.3229 C.3       1 <0>         0.0832
      8 N2          2.8899    0.7289    2.4097 N.am      1 <0>        -0.6073
      9 C6          2.4564    0.8504    1.0107 C.3       1 <0>         0.0987
     10 C7          1.0015    1.3212    0.9875 C.3       1 <0>         0.0997
     11 C8          3.9854    1.3805    2.8474 C.2       1 <0>         0.5659
     12 O2          4.5672    2.1538    2.1116 O.2       1 <0>        -0.5143
     13 C9          4.4791    1.1551    4.2210 C.ar      1 <0>        -0.1659
     14 C10         4.6120   -0.1446    4.7146 C.ar      1 <0>        -0.0569
     15 C11         5.0738   -0.3481    5.9974 C.ar      1 <0>        -0.0989
     16 C12         5.4058    0.7316    6.7981 C.ar      1 <0>        -0.0578
     17 C13         5.2773    2.0216    6.3190 C.ar      1 <0>        -0.1529
     18 C14         4.8212    2.2417    5.0318 C.ar      1 <0>         0.1521
     19 F1          4.7010    3.5025    4.5617 F         1 <0>        -0.1208
     20 C15         5.2173   -1.7504    6.5303 C.3       1 <0>        -0.0753
     21 C16         6.6197   -2.2747    6.2154 C.3       1 <0>         0.0558
     22 O3          6.7558   -3.6044    6.7207 O.3       1 <0>        -0.2782
     23 C17         7.9489   -4.2191    6.5234 C.ar      1 <0>         0.1893
     24 C18         8.9728   -3.5570    5.8623 C.ar      1 <0>        -0.2203
     25 C19        10.1864   -4.1840    5.6619 C.ar      1 <0>        -0.0488
     26 C20        10.3914   -5.4761    6.1179 C.ar      1 <0>        -0.1664
     27 C21         9.3855   -6.1485    6.7770 C.ar      1 <0>        -0.0476
     28 C22         8.1544   -5.5238    6.9918 C.ar      1 <0>        -0.1793
     29 C23         7.0748   -6.2359    7.7017 C.2       1 <0>         0.5642
     30 O4          6.0030   -5.6909    7.8820 O.2       1 <0>        -0.5220
     31 N3          7.2767   -7.4906    8.1505 N.am      1 <0>        -0.8556
     32 O5         -2.8700   -1.4675    1.7901 O.3       1 <0>        -0.2846
     33 C24        -3.8743   -1.8387    2.6271 C.ar      1 <0>         0.1274
     34 C25        -3.6501   -1.9058    3.9946 C.ar      1 <0>        -0.2135
     35 C26        -4.6728   -2.2829    4.8433 C.ar      1 <0>        -0.0789
     36 C27        -5.9188   -2.5937    4.3310 C.ar      1 <0>        -0.1567
     37 C28        -6.1447   -2.5280    2.9685 C.ar      1 <0>        -0.0781
     38 C29        -5.1271   -2.1455    2.1161 C.ar      1 <0>        -0.1478
     39 H1          0.1920   -2.0517    3.0256 H         1 <0>         0.0795
     40 H2         -1.2890   -2.9661    3.3979 H         1 <0>         0.0806
     41 H3         -0.6763   -2.9061    1.7278 H         1 <0>         0.0796
     42 H4         -1.8232   -0.5799    3.3344 H         1 <0>         0.0980
     43 H5          0.5728    1.3293    3.7932 H         1 <0>         0.0835
     44 H6          0.0201   -0.3657    3.8172 H         1 <0>         0.1009
     45 H7          2.5052   -0.0281    4.3338 H         1 <0>         0.1068
     46 H8          2.1583   -1.1539    2.9954 H         1 <0>         0.0825
     47 H9          3.0853    1.5758    0.4945 H         1 <0>         0.1110
     48 H10         2.5325   -0.1191    0.5185 H         1 <0>         0.0786
     49 H11         0.6054    1.2307   -0.0239 H         1 <0>         0.1102
     50 H12         0.9511    2.3608    1.3111 H         1 <0>         0.0783
     51 H13         4.3531   -0.9886    4.0925 H         1 <0>         0.1404
     52 H14         5.7666    0.5649    7.8023 H         1 <0>         0.1423
     53 H15         5.5375    2.8591    6.9493 H         1 <0>         0.1471
     54 H16         5.0648   -1.7464    7.6096 H         1 <0>         0.0930
     55 H17         4.4744   -2.3953    6.0608 H         1 <0>         0.0905
     56 H18         6.7722   -2.2787    5.1361 H         1 <0>         0.0658
     57 H19         7.3626   -1.6298    6.6848 H         1 <0>         0.0672
     58 H20         8.8205   -2.5497    5.5035 H         1 <0>         0.1354
     59 H21        10.9804   -3.6644    5.1462 H         1 <0>         0.1318
     60 H22        11.3440   -5.9585    5.9558 H         1 <0>         0.1322
     61 H23         9.5497   -7.1557    7.1305 H         1 <0>         0.1332
     62 H24         8.1318   -7.9255    8.0067 H         1 <0>         0.3987
     63 H25         6.5669   -7.9588    8.6173 H         1 <0>         0.4054
     64 H26        -2.6768   -1.6639    4.3952 H         1 <0>         0.1272
     65 H27        -4.4987   -2.3354    5.9079 H         1 <0>         0.1262
     66 H28        -6.7169   -2.8886    4.9961 H         1 <0>         0.1252
     67 H29        -7.1188   -2.7716    2.5707 H         1 <0>         0.1312
     68 H30        -5.3052   -2.0900    1.0523 H         1 <0>         0.1326
@<TRIPOS>BOND
     1    1    2 1
     2    1   39 1
     3    1   40 1
     4    1   41 1
     5    2    3 1
     6    2   32 1
     7    2   42 1
     8    3    4 2
     9    3    5 am
    10    5   10 1
    11    5    6 1
    12    6    7 1
    13    6   43 1
    14    6   44 1
    15    7    8 1
    16    7   45 1
    17    7   46 1
    18    8    9 1
    19    8   11 am
    20    9   10 1
    21    9   47 1
    22    9   48 1
    23   10   49 1
    24   10   50 1
    25   11   12 2
    26   11   13 1
    27   13   18 ar
    28   13   14 ar
    29   14   15 ar
    30   14   51 1
    31   15   16 ar
    32   15   20 1
    33   16   17 ar
    34   16   52 1
    35   17   18 ar
    36   17   53 1
    37   18   19 1
    38   20   21 1
    39   20   54 1
    40   20   55 1
    41   21   22 1
    42   21   56 1
    43   21   57 1
    44   22   23 1
    45   23   28 ar
    46   23   24 ar
    47   24   25 ar
    48   24   58 1
    49   25   26 ar
    50   25   59 1
    51   26   27 ar
    52   26   60 1
    53   27   28 ar
    54   27   61 1
    55   28   29 1
    56   29   30 2
    57   29   31 am
    58   31   62 1
    59   31   63 1
    60   32   33 1
    61   33   38 ar
    62   33   34 ar
    63   34   35 ar
    64   34   64 1
    65   35   36 ar
    66   35   65 1
    67   36   37 ar
    68   36   66 1
    69   37   38 ar
    70   37   67 1
    71   38   68 1
@<TRIPOS>MOLECULE
CHEMBL204898
   57    62     0     0     0
SMALL
USER_CHARGES

@<TRIPOS>ATOM
      1 C1         -0.0169    1.3958    0.0097 C.ar      1 <0>        -0.0514
      2 C2          1.1481    2.1055    0.0024 C.ar      1 <0>        -0.1419
      3 C3          2.3756    1.4448   -0.0126 C.ar      1 <0>         0.1640
      4 C4          2.4052    0.0397   -0.0212 C.ar      1 <0>        -0.1068
      5 C5          1.2199   -0.6826   -0.0142 C.ar      1 <0>         0.0069
      6 C6          0.0021   -0.0041    0.0020 C.ar      1 <0>        -0.1672
      7 C7         -1.2655   -0.7606    0.0106 C.2       1 <0>         0.5666
      8 O1         -1.2480   -1.9763    0.0039 O.2       1 <0>        -0.5346
      9 N1         -2.4422   -0.1037    0.0259 N.am      1 <0>        -0.7286
     10 C8         -3.7002   -0.8544    0.0344 C.3       1 <0>         0.1223
     11 C9         -4.8773    0.1229    0.0514 C.3       1 <0>         0.0438
     12 N2         -6.1387   -0.6300    0.0600 N.3       1 <0>        -0.5333
     13 C10        -6.3217   -1.3657   -1.1996 C.3       1 <0>         0.0113
     14 C11        -7.6152   -2.1813   -1.1246 C.3       1 <0>         0.0625
     15 O2         -8.7101   -1.3046   -0.8457 O.3       1 <0>        -0.3849
     16 C12        -8.5651   -0.5725    0.3743 C.3       1 <0>         0.0625
     17 C13        -7.2813    0.2594    0.3145 C.3       1 <0>         0.0185
     18 C14         3.8295   -0.3461   -0.0377 C.ar      1 <0>        -0.0868
     19 C15         4.4935   -1.5607   -0.0533 C.ar      1 <0>        -0.0195
     20 C16         5.8863   -1.5924   -0.0671 C.ar      1 <0>        -0.1745
     21 C17         6.6129   -0.3898   -0.0645 C.ar      1 <0>         0.0153
     22 C18         5.9611    0.8083   -0.0490 C.ar      1 <0>        -0.1291
     23 C19         4.5638    0.8514   -0.0365 C.ar      1 <0>         0.1871
     24 N3          3.6756    1.9070   -0.0217 N.pl3     1 <0>        -0.6026
     25 H1          3.9295    2.8432   -0.0180 H         1 <0>         0.4232
     26 C20         6.9638    1.9441   -0.0491 C.3       1 <0>        -0.0766
     27 C21         8.3013    1.2995    0.3728 C.3       1 <0>        -0.1199
     28 C22         8.1110   -0.1647   -0.0768 C.3       1 <0>        -0.0871
     29 C23         6.3174   -3.0015   -0.0826 C.2       1 <0>         0.5649
     30 O3          7.4748   -3.3736   -0.0970 O.2       1 <0>        -0.5251
     31 N4          5.2487   -3.8169   -0.0787 N.am      1 <0>        -0.7245
     32 C24         4.0320   -2.9966   -0.0600 C.3       1 <0>         0.1384
     33 H2         -0.9620    1.9183    0.0261 H         1 <0>         0.1323
     34 H3          1.1193    3.1851    0.0079 H         1 <0>         0.1335
     35 H4          1.2410   -1.7623   -0.0203 H         1 <0>         0.1413
     36 H5         -2.4562    0.8662    0.0312 H         1 <0>         0.3991
     37 H6         -3.7578   -1.4771   -0.8584 H         1 <0>         0.0704
     38 H7         -3.7400   -1.4866    0.9215 H         1 <0>         0.0805
     39 H8         -4.8197    0.7455    0.9442 H         1 <0>         0.0844
     40 H9         -4.8375    0.7550   -0.8356 H         1 <0>         0.0435
     41 H10        -6.3840   -0.6597   -2.0277 H         1 <0>         0.0459
     42 H11        -5.4769   -2.0367   -1.3552 H         1 <0>         0.0913
     43 H12        -7.7845   -2.6835   -2.0771 H         1 <0>         0.1003
     44 H13        -7.5319   -2.9236   -0.3308 H         1 <0>         0.0623
     45 H14        -9.4216    0.0888    0.5059 H         1 <0>         0.1002
     46 H15        -8.5095   -1.2680    1.2117 H         1 <0>         0.0618
     47 H16        -7.1369    0.7747    1.2641 H         1 <0>         0.0887
     48 H17        -7.3590    0.9913   -0.4894 H         1 <0>         0.0454
     49 H18         7.0489    2.3737   -1.0473 H         1 <0>         0.0821
     50 H19         6.6691    2.7091    0.6692 H         1 <0>         0.0736
     51 H20         9.1380    1.7616   -0.1511 H         1 <0>         0.0826
     52 H21         8.4388    1.3601    1.4524 H         1 <0>         0.0763
     53 H22         8.6013   -0.8421    0.6224 H         1 <0>         0.0884
     54 H23         8.5067   -0.3063   -1.0826 H         1 <0>         0.0903
     55 H24         5.2771   -4.7864   -0.0873 H         1 <0>         0.4271
     56 H25         3.4513   -3.2079    0.8379 H         1 <0>         0.1029
     57 H26         3.4334   -3.1938   -0.9493 H         1 <0>         0.1028
@<TRIPOS>BOND
     1    1    6 ar
     2    1    2 ar
     3    1   33 1
     4    2    3 ar
     5    2   34 1
     6    3   24 1
     7    3    4 ar
     8    4    5 ar
     9    4   18 1
    10    5    6 ar
    11    5   35 1
    12    6    7 1
    13    7    8 2
    14    7    9 am
    15    9   10 1
    16    9   36 1
    17   10   11 1
    18   10   37 1
    19   10   38 1
    20   11   12 1
    21   11   39 1
    22   11   40 1
    23   12   17 1
    24   12   13 1
    25   13   14 1
    26   13   41 1
    27   13   42 1
    28   14   15 1
    29   14   43 1
    30   14   44 1
    31   15   16 1
    32   16   17 1
    33   16   45 1
    34   16   46 1
    35   17   47 1
    36   17   48 1
    37   18   23 ar
    38   18   19 ar
    39   19   32 1
    40   19   20 ar
    41   20   21 ar
    42   20   29 1
    43   21   28 1
    44   21   22 ar
    45   22   23 ar
    46   22   26 1
    47   23   24 1
    48   24   25 1
    49   26   27 1
    50   26   49 1
    51   26   50 1
    52   27   28 1
    53   27   51 1
    54   27   52 1
    55   28   53 1
    56   28   54 1
    57   29   30 2
    58   29   31 am
    59   31   32 1
    60   31   55 1
    61   32   56 1
    62   32   57 1
@<TRIPOS>MOLECULE
CHEMBL204898__1
   58    63     0     0     0
SMALL
USER_CHARGES

@<TRIPOS>ATOM
      1 C1         -0.0169    1.3958    0.0097 C.ar      1 <0>        -0.0528
      2 C2          1.1481    2.1055    0.0024 C.ar      1 <0>        -0.1408
      3 C3          2.3756    1.4448   -0.0126 C.ar      1 <0>         0.1731
      4 C4          2.4052    0.0397   -0.0212 C.ar      1 <0>        -0.1051
      5 C5          1.2199   -0.6826   -0.0142 C.ar      1 <0>         0.0139
      6 C6          0.0021   -0.0041    0.0020 C.ar      1 <0>        -0.1829
      7 C7         -1.2655   -0.7606    0.0106 C.2       1 <0>         0.5779
      8 O1         -1.2480   -1.9763    0.0039 O.2       1 <0>        -0.5249
      9 N1         -2.4422   -0.1037    0.0259 N.am      1 <0>        -0.7337
     10 C8         -3.7002   -0.8544    0.0344 C.3       1 <0>         0.0969
     11 C9         -4.8773    0.1229    0.0514 C.3       1 <0>        -0.0221
     12 N2         -6.1387   -0.6300    0.0600 N.4       1 <0>        -0.3816
     13 C10        -6.2725   -1.3762   -1.1987 C.3       1 <0>        -0.0515
     14 C11        -7.5873   -2.1599   -1.1872 C.3       1 <0>         0.0364
     15 O2         -8.6758   -1.2518   -0.9966 O.3       1 <0>        -0.3558
     16 C12        -8.5783   -0.4835    0.2059 C.3       1 <0>         0.0355
     17 C13        -7.2653    0.3033    0.1970 C.3       1 <0>        -0.0426
     18 C14         3.8295   -0.3461   -0.0377 C.ar      1 <0>        -0.0889
     19 C15         4.4935   -1.5607   -0.0533 C.ar      1 <0>        -0.0228
     20 C16         5.8863   -1.5924   -0.0671 C.ar      1 <0>        -0.1683
     21 C17         6.6129   -0.3898   -0.0645 C.ar      1 <0>         0.0188
     22 C18         5.9611    0.8083   -0.0490 C.ar      1 <0>        -0.1250
     23 C19         4.5638    0.8514   -0.0365 C.ar      1 <0>         0.1850
     24 N3          3.6756    1.9070   -0.0217 N.pl3     1 <0>        -0.6000
     25 H1          3.9295    2.8432   -0.0180 H         1 <0>         0.4256
     26 C20         6.9638    1.9441   -0.0491 C.3       1 <0>        -0.0781
     27 C21         8.3013    1.2995    0.3728 C.3       1 <0>        -0.1203
     28 C22         8.1110   -0.1647   -0.0768 C.3       1 <0>        -0.0893
     29 C23         6.3174   -3.0015   -0.0826 C.2       1 <0>         0.5634
     30 O3          7.4748   -3.3736   -0.0970 O.2       1 <0>        -0.5184
     31 N4          5.2487   -3.8169   -0.0787 N.am      1 <0>        -0.7251
     32 C24         4.0320   -2.9966   -0.0600 C.3       1 <0>         0.1406
     33 H2         -0.9620    1.9183    0.0261 H         1 <0>         0.1287
     34 H3          1.1193    3.1851    0.0079 H         1 <0>         0.1358
     35 H4          1.2410   -1.7623   -0.0203 H         1 <0>         0.1419
     36 H5         -2.4562    0.8662    0.0312 H         1 <0>         0.4072
     37 H6         -3.7578   -1.4771   -0.8584 H         1 <0>         0.0905
     38 H7         -3.7400   -1.4866    0.9215 H         1 <0>         0.0910
     39 H8         -4.8197    0.7455    0.9442 H         1 <0>         0.1411
     40 H9         -4.8375    0.7550   -0.8356 H         1 <0>         0.1391
     41 H10        -6.2720   -0.6790   -2.0366 H         1 <0>         0.1419
     42 H11        -5.4372   -2.0689   -1.3013 H         1 <0>         0.1457
     43 H12        -7.7093   -2.6801   -2.1373 H         1 <0>         0.1438
     44 H13        -7.5717   -2.8852   -0.3737 H         1 <0>         0.0832
     45 H14        -9.4176    0.2096    0.2641 H         1 <0>         0.1435
     46 H15        -8.5966   -1.1514    1.0671 H         1 <0>         0.0826
     47 H16        -7.1671    0.8573    1.1305 H         1 <0>         0.1445
     48 H17        -7.2645    0.9999   -0.6414 H         1 <0>         0.1408
     49 H18         7.0489    2.3737   -1.0473 H         1 <0>         0.0840
     50 H19         6.6691    2.7091    0.6692 H         1 <0>         0.0748
     51 H20         9.1380    1.7616   -0.1511 H         1 <0>         0.0850
     52 H21         8.4388    1.3601    1.4524 H         1 <0>         0.0775
     53 H22         8.6013   -0.8421    0.6224 H         1 <0>         0.0905
     54 H23         8.5067   -0.3063   -1.0826 H         1 <0>         0.0927
     55 H24         5.2771   -4.7864   -0.0873 H         1 <0>         0.4282
     56 H25         3.4513   -3.2079    0.8379 H         1 <0>         0.1012
     57 H26         3.4334   -3.1938   -0.9493 H         1 <0>         0.1013
     58 H27        -6.1401   -1.2753    0.8357 H         1 <0>         0.4262
@<TRIPOS>BOND
     1    1    6 ar
     2    1    2 ar
     3    1   33 1
     4    2    3 ar
     5    2   34 1
     6    3   24 1
     7    3    4 ar
     8    4    5 ar
     9    4   18 1
    10    5    6 ar
    11    5   35 1
    12    6    7 1
    13    7    8 2
    14    7    9 am
    15    9   10 1
    16    9   36 1
    17   10   11 1
    18   10   37 1
    19   10   38 1
    20   11   12 1
    21   11   39 1
    22   11   40 1
    23   12   17 1
    24   12   13 1
    25   12   58 1
    26   13   14 1
    27   13   41 1
    28   13   42 1
    29   14   15 1
    30   14   43 1
    31   14   44 1
    32   15   16 1
    33   16   17 1
    34   16   45 1
    35   16   46 1
    36   17   47 1
    37   17   48 1
    38   18   23 ar
    39   18   19 ar
    40   19   32 1
    41   19   20 ar
    42   20   21 ar
    43   20   29 1
    44   21   28 1
    45   21   22 ar
    46   22   23 ar
    47   22   26 1
    48   23   24 1
    49   24   25 1
    50   26   27 1
    51   26   49 1
    52   26   50 1
    53   27   28 1
    54   27   51 1
    55   27   52 1
    56   28   53 1
    57   28   54 1
    58   29   30 2
    59   29   31 am
    60   31   32 1
    61   31   55 1
    62   32   56 1
    63   32   57 1
@<TRIPOS>MOLECULE
CHEMBL556241
   41    44     0     0     0
SMALL
USER_CHARGES

@<TRIPOS>ATOM
      1 C1         -0.0163    1.3512    0.0095 C.2       1 <0>        -0.1806
      2 C2          1.3081    1.7995   -0.0008 C.2       1 <0>        -0.0697
      3 C3          2.1126    0.6813   -0.0144 C.2       1 <0>        -0.0783
      4 C4          3.5658    0.5029   -0.0288 C.2       1 <0>         0.5863
      5 O1          4.3019    1.4727   -0.0304 O.2       1 <0>        -0.4884
      6 N1          4.0837   -0.7415   -0.0400 N.am      1 <0>        -0.6559
      7 H1          5.0461   -0.8624   -0.0495 H         1 <0>         0.4241
      8 C5          3.2458   -1.8567   -0.0374 C.ar      1 <0>         0.1618
      9 C6          3.7976   -3.1323   -0.0485 C.ar      1 <0>        -0.1160
     10 C7          2.9753   -4.2410   -0.0461 C.ar      1 <0>        -0.1344
     11 C8          1.5997   -4.0887   -0.0323 C.ar      1 <0>        -0.0926
     12 C9          1.0413   -2.8259   -0.0213 C.ar      1 <0>        -0.0966
     13 C10         1.8600   -1.7046   -0.0235 C.ar      1 <0>         0.1322
     14 N2          1.2908   -0.4267   -0.0125 N.pl3     1 <0>        -0.3872
     15 C11         0.0021   -0.0041    0.0020 C.2       1 <0>         0.0340
     16 C12         3.5775   -5.6224   -0.0591 C.3       1 <0>         0.0454
     17 N3          3.7867   -6.0784    1.3215 N.4       1 <0>        -0.3817
     18 C13         4.7812   -5.2182    1.9739 C.3       1 <0>        -0.0145
     19 C14         4.9434   -5.6381    3.4364 C.3       1 <0>        -0.1450
     20 C15         5.4100   -7.0955    3.4946 C.3       1 <0>        -0.1395
     21 C16         4.4028   -7.9740    2.7469 C.3       1 <0>        -0.1462
     22 C17         4.2607   -7.4675    1.3099 C.3       1 <0>        -0.0071
     23 H2         -0.8981    1.9747    0.0252 H         1 <0>         0.1643
     24 H3          1.6379    2.8279    0.0013 H         1 <0>         0.1625
     25 H4          4.8704   -3.2562   -0.0593 H         1 <0>         0.1479
     26 H5          0.9614   -4.9598   -0.0306 H         1 <0>         0.1462
     27 H6         -0.0325   -2.7104   -0.0112 H         1 <0>         0.1508
     28 H7         -0.8682   -0.6436    0.0066 H         1 <0>         0.1806
     29 H8          2.9018   -6.3085   -0.5699 H         1 <0>         0.1428
     30 H9          4.5334   -5.5971   -0.5822 H         1 <0>         0.1385
     31 H10         5.7377   -5.3153    1.4603 H         1 <0>         0.1289
     32 H11         4.4492   -4.1810    1.9288 H         1 <0>         0.1290
     33 H12         5.6835   -4.9994    3.9185 H         1 <0>         0.1112
     34 H13         3.9874   -5.5411    3.9511 H         1 <0>         0.0870
     35 H14         6.3897   -7.1836    3.0250 H         1 <0>         0.0820
     36 H15         5.4727   -7.4169    4.5343 H         1 <0>         0.0942
     37 H16         4.7565   -9.0049    2.7362 H         1 <0>         0.1129
     38 H17         3.4356   -7.9255    3.2472 H         1 <0>         0.0876
     39 H18         3.5444   -8.0909    0.7747 H         1 <0>         0.1316
     40 H19         5.2282   -7.5167    0.8105 H         1 <0>         0.1294
     41 H20         2.9155   -6.0255    1.8278 H         1 <0>         0.4227
@<TRIPOS>BOND
     1    1   15 2
     2    1    2 1
     3    1   23 1
     4    2    3 2
     5    2   24 1
     6    3   14 1
     7    3    4 1
     8    4    5 2
     9    4    6 am
    10    6    7 1
    11    6    8 1
    12    8   13 ar
    13    8    9 ar
    14    9   10 ar
    15    9   25 1
    16   10   11 ar
    17   10   16 1
    18   11   12 ar
    19   11   26 1
    20   12   13 ar
    21   12   27 1
    22   13   14 1
    23   14   15 1
    24   15   28 1
    25   16   17 1
    26   16   29 1
    27   16   30 1
    28   17   22 1
    29   17   18 1
    30   17   41 1
    31   18   19 1
    32   18   31 1
    33   18   32 1
    34   19   20 1
    35   19   33 1
    36   19   34 1
    37   20   21 1
    38   20   35 1
    39   20   36 1
    40   21   22 1
    41   21   37 1
    42   21   38 1
    43   22   39 1
    44   22   40 1
@<TRIPOS>MOLECULE
CHEMBL432406
   54    57     0     0     0
SMALL
USER_CHARGES

@<TRIPOS>ATOM
      1 C1         -0.0167    1.3818    0.0096 C.ar      1 <0>        -0.2913
      2 C2          1.1915    2.0609    0.0018 C.ar      1 <0>         0.1946
      3 N1          2.3197    1.3705   -0.0127 N.ar      1 <0>        -0.5710
      4 C3          2.3029    0.0457   -0.0197 C.ar      1 <0>         0.5650
      5 N2          1.1654   -0.6335   -0.0129 N.ar      1 <0>        -0.5717
      6 C4          0.0021   -0.0041    0.0020 C.ar      1 <0>         0.1944
      7 N3          3.5022   -0.6451   -0.0348 N.pl3     1 <0>        -0.5862
      8 C5          4.7817    0.0778   -0.0370 C.3       1 <0>         0.1140
      9 C6          5.6243   -0.4138    1.1465 C.3       1 <0>         0.0980
     10 N4          5.6410   -1.8833    1.1327 N.am      1 <0>        -0.6080
     11 C7          4.3614   -2.6062    1.1349 C.3       1 <0>         0.0881
     12 C8          3.5188   -2.1146   -0.0429 C.3       1 <0>         0.1121
     13 C9          6.8088   -2.5560    1.1180 C.2       1 <0>         0.5140
     14 O1          7.8585   -1.9485    1.1160 O.2       1 <0>        -0.5322
     15 C10         6.8102   -4.0629    1.1041 C.3       1 <0>         0.1009
     16 N5          8.1919   -4.5498    1.0895 N.am      1 <0>        -0.7125
     17 C11         8.4394   -5.8746    1.0754 C.2       1 <0>         0.5022
     18 O2          7.5184   -6.6636    1.0748 O.2       1 <0>        -0.5210
     19 C12         9.8607   -6.3754    1.0604 C.3       1 <0>         0.0834
     20 N6          9.8621   -7.8404    1.0469 N.am      1 <0>        -0.5233
     21 C13         9.8658   -8.5214    2.2542 C.2       1 <0>         0.2203
     22 C14         9.8432   -9.8564    2.2285 C.2       1 <0>        -0.2445
     23 C15         9.8681  -10.5230    0.9651 C.2       1 <0>         0.5571
     24 O3          9.8849  -11.7401    0.9258 O.2       1 <0>        -0.5047
     25 N7          9.8726   -9.8211   -0.1789 N.am      1 <0>        -0.6536
     26 H1          9.8858  -10.2793   -1.0337 H         1 <0>         0.4356
     27 C16         9.8541   -8.4757   -0.1299 C.2       1 <0>         0.7068
     28 O4          9.8344   -7.8340   -1.1624 O.2       1 <0>        -0.5334
     29 C17         9.7650  -10.7678    3.4278 C.3       1 <0>        -0.0097
     30 S1         10.2783   -9.8809    4.9250 S.3       1 <0>        -0.2335
     31 C18         9.3989   -8.2972    4.7321 C.3       1 <0>        -0.0821
     32 C19         9.9201   -7.6347    3.4648 C.3       1 <0>        -0.0993
     33 H2         -0.9525    1.9208    0.0259 H         1 <0>         0.1454
     34 H3          1.2116    3.1407    0.0070 H         1 <0>         0.1683
     35 H4         -0.9219   -0.5632    0.0082 H         1 <0>         0.1684
     36 H5          5.3111   -0.1183   -0.9694 H         1 <0>         0.0723
     37 H6          4.5978    1.1474    0.0642 H         1 <0>         0.1137
     38 H7          6.6423   -0.0356    1.0529 H         1 <0>         0.1092
     39 H8          5.1849   -0.0617    2.0797 H         1 <0>         0.0762
     40 H9          4.5453   -3.6758    1.0337 H         1 <0>         0.1012
     41 H10         3.8320   -2.4101    2.0673 H         1 <0>         0.0818
     42 H11         2.5011   -2.4925    0.0544 H         1 <0>         0.1150
     43 H12         3.9562   -2.4704   -0.9758 H         1 <0>         0.0729
     44 H13         6.3033   -4.4350    1.9944 H         1 <0>         0.1035
     45 H14         6.2903   -4.4185    0.2145 H         1 <0>         0.1034
     46 H15         8.9285   -3.9188    1.0899 H         1 <0>         0.4159
     47 H16        10.3676   -6.0034    0.1701 H         1 <0>         0.1404
     48 H17        10.3806   -6.0198    1.9499 H         1 <0>         0.1339
     49 H18         8.7398  -11.1176    3.5490 H         1 <0>         0.1035
     50 H19        10.4205  -11.6248    3.2732 H         1 <0>         0.1284
     51 H20         8.3277   -8.4773    4.6418 H         1 <0>         0.0965
     52 H21         9.5961   -7.6572    5.5922 H         1 <0>         0.1258
     53 H22        10.9545   -7.3330    3.6295 H         1 <0>         0.1174
     54 H23         9.3268   -6.7415    3.2693 H         1 <0>         0.0983
@<TRIPOS>BOND
     1    1    6 ar
     2    1    2 ar
     3    1   33 1
     4    2    3 ar
     5    2   34 1
     6    3    4 ar
     7    4    5 ar
     8    4    7 1
     9    5    6 ar
    10    6   35 1
    11    7   12 1
    12    7    8 1
    13    8    9 1
    14    8   36 1
    15    8   37 1
    16    9   10 1
    17    9   38 1
    18    9   39 1
    19   10   11 1
    20   10   13 am
    21   11   12 1
    22   11   40 1
    23   11   41 1
    24   12   42 1
    25   12   43 1
    26   13   14 2
    27   13   15 1
    28   15   16 1
    29   15   44 1
    30   15   45 1
    31   16   17 am
    32   16   46 1
    33   17   18 2
    34   17   19 1
    35   19   20 1
    36   19   47 1
    37   19   48 1
    38   20   27 am
    39   20   21 1
    40   21   32 1
    41   21   22 2
    42   22   23 1
    43   22   29 1
    44   23   24 2
    45   23   25 am
    46   25   26 1
    47   25   27 am
    48   27   28 2
    49   29   30 1
    50   29   49 1
    51   29   50 1
    52   30   31 1
    53   31   32 1
    54   31   51 1
    55   31   52 1
    56   32   53 1
    57   32   54 1
@<TRIPOS>MOLECULE
CHEMBL334734
   32    34     0     0     0
SMALL
USER_CHARGES

@<TRIPOS>ATOM
      1 C1         -0.0167    1.3774    0.0096 C.ar      1 <0>        -0.1085
      2 C2          1.1628    2.0989    0.0022 C.ar      1 <0>        -0.0848
      3 C3          2.3901    1.4411   -0.0130 C.ar      1 <0>        -0.0872
      4 C4          2.4210    0.0291   -0.0208 C.ar      1 <0>         0.1032
      5 C5          1.2101   -0.6854   -0.0131 C.ar      1 <0>         0.0447
      6 C6          0.0021   -0.0041    0.0020 C.ar      1 <0>        -0.0799
      7 N1          1.5541   -2.0239   -0.0235 N.pl3     1 <0>        -0.5903
      8 H1          0.9423   -2.7767   -0.0217 H         1 <0>         0.4264
      9 C7          2.9199   -2.0865   -0.0368 C.2       1 <0>         0.3186
     10 N2          3.4185   -0.8725   -0.0351 N.2       1 <0>        -0.4449
     11 C8          3.7148   -3.3333   -0.0503 C.ar      1 <0>         0.0026
     12 C9          3.0740   -4.5730   -0.0559 C.ar      1 <0>        -0.1040
     13 C10         3.8215   -5.7325   -0.0689 C.ar      1 <0>        -0.0676
     14 C11         5.2035   -5.6681   -0.0761 C.ar      1 <0>        -0.1683
     15 C12         5.8450   -4.4422   -0.0701 C.ar      1 <0>        -0.0669
     16 C13         5.1092   -3.2753   -0.0634 C.ar      1 <0>        -0.0673
     17 C14         6.0137   -6.9387   -0.0898 C.3       1 <0>         0.5080
     18 F1          6.2572   -7.3222   -1.4130 F         1 <0>        -0.1737
     19 F2          7.2312   -6.7226    0.5646 F         1 <0>        -0.1738
     20 F3          5.3049   -7.9508    0.5662 F         1 <0>        -0.1754
     21 C15         3.6461    2.2117   -0.0213 C.2       1 <0>         0.5575
     22 O1          4.7151    1.6321   -0.0346 O.2       1 <0>        -0.5108
     23 N3          3.6101    3.5590   -0.0142 N.am      1 <0>        -0.8545
     24 H2         -0.9622    1.8990    0.0260 H         1 <0>         0.1417
     25 H3          1.1320    3.1784    0.0079 H         1 <0>         0.1370
     26 H4         -0.9267   -0.5551    0.0082 H         1 <0>         0.1319
     27 H5          1.9952   -4.6246   -0.0496 H         1 <0>         0.1337
     28 H6          3.3268   -6.6925   -0.0733 H         1 <0>         0.1446
     29 H7          6.9242   -4.3988   -0.0750 H         1 <0>         0.1470
     30 H8          5.6111   -2.3190   -0.0637 H         1 <0>         0.1561
     31 H9          2.7574    4.0213   -0.0036 H         1 <0>         0.3988
     32 H10         4.4368    4.0663   -0.0197 H         1 <0>         0.4061
@<TRIPOS>BOND
     1    1    6 ar
     2    1    2 ar
     3    1   24 1
     4    2    3 ar
     5    2   25 1
     6    3    4 ar
     7    3   21 1
     8    4   10 1
     9    4    5 ar
    10    5    6 ar
    11    5    7 1
    12    6   26 1
    13    7    8 1
    14    7    9 1
    15    9   10 2
    16    9   11 1
    17   11   16 ar
    18   11   12 ar
    19   12   13 ar
    20   12   27 1
    21   13   14 ar
    22   13   28 1
    23   14   15 ar
    24   14   17 1
    25   15   16 ar
    26   15   29 1
    27   16   30 1
    28   17   18 1
    29   17   19 1
    30   17   20 1
    31   21   22 2
    32   21   23 am
    33   23   31 1
    34   23   32 1
@<TRIPOS>MOLECULE
CHEMBL381543
   64    68     0     0     0
SMALL
USER_CHARGES

@<TRIPOS>ATOM
      1 C1          3.4011    3.4153   -0.6702 C.3       1 <0>        -0.1201
      2 C2          3.1048    2.0138   -0.2022 C.2       1 <0>         0.1804
      3 C3          2.4609    1.0120   -0.9504 C.2       1 <0>        -0.8517
      4 C4          2.3834   -0.0957   -0.1881 C.2       1 <0>         0.2217
      5 O1          2.9503    0.1763    0.9973 O.3       1 <0>        -0.0746
      6 N1          3.4056    1.5169    0.9642 N.2       1 <0>        -0.3091
      7 C5          1.7677   -1.4096   -0.5949 C.3       1 <0>        -0.1403
      8 S1          1.8596    1.1775   -2.5983 S.o2      1 <0>         2.7121
      9 O2          0.8376    0.2030   -2.7575 O.2       1 <0>        -0.9481
     10 O3          1.6299    2.5638   -2.8096 O.2       1 <0>        -0.9449
     11 N2          3.0917    0.7415   -3.6152 N.pl3     1 <0>        -0.9876
     12 C6          4.0110    1.7477   -4.0631 C.3       1 <0>         0.1249
     13 C7          3.4137    2.4127   -5.3146 C.3       1 <0>        -0.1744
     14 C8          3.5927    1.5807   -6.5149 C.3       1 <0>         0.1098
     15 N3          2.9613    0.2539   -6.3210 N.am      1 <0>        -0.5985
     16 C9          3.6185   -0.7464   -5.5273 C.3       1 <0>         0.1084
     17 C10         3.2133   -0.6829   -4.0303 C.3       1 <0>         0.0912
     18 C11         1.7692   -0.0139   -6.8898 C.2       1 <0>         0.5619
     19 O4          1.2952   -1.1305   -6.8108 O.2       1 <0>        -0.5231
     20 C12         1.0378    1.0503   -7.6098 C.ar      1 <0>        -0.1240
     21 C13         0.7083    2.2394   -6.9569 C.ar      1 <0>        -0.0928
     22 C14         0.0263    3.2285   -7.6345 C.ar      1 <0>        -0.1163
     23 C15        -0.3316    3.0438   -8.9585 C.ar      1 <0>        -0.0828
     24 C16        -0.0081    1.8679   -9.6113 C.ar      1 <0>        -0.0774
     25 C17         0.6790    0.8728   -8.9467 C.ar      1 <0>        -0.0575
     26 C18        -0.4023    1.6753  -11.0530 C.3       1 <0>        -0.0197
     27 C19         0.7007    2.1803  -11.9471 C.2       1 <0>         0.1416
     28 C20         0.5540    2.1090  -13.4010 C.ar      1 <0>        -0.0605
     29 C21        -0.5909    1.5814  -14.0012 C.ar      1 <0>        -0.0970
     30 C22        -0.6809    1.5369  -15.3644 C.ar      1 <0>        -0.0871
     31 C23         0.3522    2.0093  -16.1636 C.ar      1 <0>        -0.1104
     32 C24         1.4939    2.5349  -15.5994 C.ar      1 <0>        -0.0551
     33 C25         1.6075    2.5913  -14.2109 C.ar      1 <0>        -0.1260
     34 C26         2.7973    3.1403  -13.5490 C.2       1 <0>         0.5288
     35 N4          2.8375    3.1624  -12.2004 N.am      1 <0>        -0.5342
     36 N5          1.7799    2.6839  -11.4265 N.2       1 <0>        -0.2217
     37 O5          3.7307    3.5675  -14.2047 O.2       1 <0>        -0.5217
     38 H1          4.3794    3.4389   -1.1503 H         1 <0>         0.0965
     39 H2          2.6387    3.7291   -1.3832 H         1 <0>         0.1200
     40 H3          3.3995    4.0918    0.1846 H         1 <0>         0.0929
     41 H4          2.5281   -2.0399   -1.0561 H         1 <0>         0.1129
     42 H5          1.3657   -1.9106    0.2858 H         1 <0>         0.1054
     43 H6          0.9639   -1.2287   -1.3085 H         1 <0>         0.1357
     44 H7          4.1511    2.4935   -3.2807 H         1 <0>         0.0830
     45 H8          4.9680    1.2885   -4.3110 H         1 <0>         0.0890
     46 H9          2.3486    2.5794   -5.1539 H         1 <0>         0.0814
     47 H10         3.9021    3.3742   -5.4731 H         1 <0>         0.0943
     48 H11         3.1336    2.0773   -7.3698 H         1 <0>         0.0933
     49 H12         4.6576    1.4489   -6.7068 H         1 <0>         0.0810
     50 H13         3.3648   -1.7310   -5.9200 H         1 <0>         0.0985
     51 H14         4.6966   -0.6054   -5.6042 H         1 <0>         0.0828
     52 H15         3.9734   -1.1747   -3.4234 H         1 <0>         0.0823
     53 H16         2.2559   -1.1850   -3.8913 H         1 <0>         0.1026
     54 H17         0.9864    2.3844   -5.9235 H         1 <0>         0.1285
     55 H18        -0.2293    4.1489   -7.1306 H         1 <0>         0.1307
     56 H19        -0.8662    3.8211   -9.4843 H         1 <0>         0.1260
     57 H20         0.9346   -0.0431   -9.4587 H         1 <0>         0.1265
     58 H21        -0.5696    0.6156  -11.2455 H         1 <0>         0.1082
     59 H22        -1.3180    2.2305  -11.2566 H         1 <0>         0.1091
     60 H23        -1.4012    1.2100  -13.3914 H         1 <0>         0.1423
     61 H24        -1.5675    1.1283  -15.8264 H         1 <0>         0.1368
     62 H25         0.2597    1.9638  -17.2386 H         1 <0>         0.1374
     63 H26         2.2933    2.9004  -16.2268 H         1 <0>         0.1433
     64 H27         3.6209    3.5240  -11.7572 H         1 <0>         0.4359
@<TRIPOS>BOND
     1    1    2 1
     2    1   38 1
     3    1   39 1
     4    1   40 1
     5    2    6 2
     6    2    3 1
     7    3    4 2
     8    3    8 1
     9    4    5 1
    10    4    7 1
    11    5    6 1
    12    7   41 1
    13    7   42 1
    14    7   43 1
    15    8    9 2
    16    8   10 2
    17    8   11 1
    18   11   17 1
    19   11   12 1
    20   12   13 1
    21   12   44 1
    22   12   45 1
    23   13   14 1
    24   13   46 1
    25   13   47 1
    26   14   15 1
    27   14   48 1
    28   14   49 1
    29   15   16 1
    30   15   18 am
    31   16   17 1
    32   16   50 1
    33   16   51 1
    34   17   52 1
    35   17   53 1
    36   18   19 2
    37   18   20 1
    38   20   25 ar
    39   20   21 ar
    40   21   22 ar
    41   21   54 1
    42   22   23 ar
    43   22   55 1
    44   23   24 ar
    45   23   56 1
    46   24   25 ar
    47   24   26 1
    48   25   57 1
    49   26   27 1
    50   26   58 1
    51   26   59 1
    52   27   36 2
    53   27   28 1
    54   28   33 ar
    55   28   29 ar
    56   29   30 ar
    57   29   60 1
    58   30   31 ar
    59   30   61 1
    60   31   32 ar
    61   31   62 1
    62   32   33 ar
    63   32   63 1
    64   33   34 1
    65   34   35 am
    66   34   37 2
    67   35   36 1
    68   35   64 1
@<TRIPOS>MOLECULE
CHEMBL554501
   38    41     0     0     0
SMALL
USER_CHARGES

@<TRIPOS>ATOM
      1 C1         -0.0163    1.3508    0.0095 C.2       1 <0>        -0.1880
      2 C2          1.3084    1.7995   -0.0008 C.2       1 <0>        -0.0827
      3 C3          2.1132    0.6819   -0.0144 C.2       1 <0>        -0.0719
      4 C4          3.5667    0.5049   -0.0288 C.2       1 <0>         0.5867
      5 O1          4.3021    1.4751   -0.0303 O.2       1 <0>        -0.5035
      6 N1          4.0850   -0.7393   -0.0400 N.am      1 <0>        -0.6517
      7 H1          5.0474   -0.8601   -0.0495 H         1 <0>         0.4247
      8 C5          3.2464   -1.8551   -0.0374 C.ar      1 <0>         0.1486
      9 C6          3.7998   -3.1262   -0.0485 C.ar      1 <0>        -0.0709
     10 C7          2.9693   -4.2469   -0.0461 C.ar      1 <0>        -0.1067
     11 C8          1.5808   -4.0857   -0.0326 C.ar      1 <0>        -0.0843
     12 C9          1.0338   -2.8225   -0.0216 C.ar      1 <0>        -0.1050
     13 C10         1.8586   -1.7024   -0.0235 C.ar      1 <0>         0.1192
     14 N2          1.2917   -0.4267   -0.0125 N.pl3     1 <0>        -0.3776
     15 C11         0.0021   -0.0041    0.0020 C.2       1 <0>         0.0307
     16 C12         3.5561   -5.6020   -0.0583 C.2       1 <0>         0.5629
     17 O2          4.7638   -5.7413   -0.0705 O.2       1 <0>        -0.5252
     18 N3          2.7529   -6.6843   -0.0560 N.am      1 <0>        -0.7207
     19 C13         3.3351   -8.0286   -0.0681 C.3       1 <0>         0.1602
     20 C14         2.2310   -9.0542   -0.0627 C.ar      1 <0>        -0.0682
     21 C15         1.7184   -9.5389    1.1310 C.ar      1 <0>        -0.1545
     22 C16         0.7060  -10.4791    1.0967 C.ar      1 <0>         0.1004
     23 N4          0.2288  -10.9149   -0.0527 N.ar      1 <0>        -0.4783
     24 C17         0.6920  -10.4763   -1.2069 C.ar      1 <0>         0.1005
     25 C18         1.6997   -9.5314   -1.2511 C.ar      1 <0>        -0.1545
     26 H2         -0.8981    1.9741    0.0253 H         1 <0>         0.1591
     27 H3          1.6380    2.8280    0.0011 H         1 <0>         0.1580
     28 H4          4.8728   -3.2485   -0.0593 H         1 <0>         0.1565
     29 H5          0.9368   -4.9527   -0.0311 H         1 <0>         0.1402
     30 H6         -0.0393   -2.7008   -0.0111 H         1 <0>         0.1469
     31 H7         -0.8681   -0.6437    0.0072 H         1 <0>         0.1776
     32 H8          1.7893   -6.5731   -0.0463 H         1 <0>         0.4028
     33 H9          3.9425   -8.1534   -0.9646 H         1 <0>         0.0861
     34 H10         3.9594   -8.1621    0.8153 H         1 <0>         0.0862
     35 H11         2.1056   -9.1864    2.0755 H         1 <0>         0.1386
     36 H12         0.3013  -10.8616    2.0221 H         1 <0>         0.1597
     37 H13         0.2764  -10.8569   -2.1282 H         1 <0>         0.1597
     38 H14         2.0715   -9.1725   -2.1994 H         1 <0>         0.1386
@<TRIPOS>BOND
     1    1   15 2
     2    1    2 1
     3    1   26 1
     4    2    3 2
     5    2   27 1
     6    3   14 1
     7    3    4 1
     8    4    5 2
     9    4    6 am
    10    6    7 1
    11    6    8 1
    12    8   13 ar
    13    8    9 ar
    14    9   10 ar
    15    9   28 1
    16   10   11 ar
    17   10   16 1
    18   11   12 ar
    19   11   29 1
    20   12   13 ar
    21   12   30 1
    22   13   14 1
    23   14   15 1
    24   15   31 1
    25   16   17 2
    26   16   18 am
    27   18   19 1
    28   18   32 1
    29   19   20 1
    30   19   33 1
    31   19   34 1
    32   20   25 ar
    33   20   21 ar
    34   21   22 ar
    35   21   35 1
    36   22   23 ar
    37   22   36 1
    38   23   24 ar
    39   24   25 ar
    40   24   37 1
    41   25   38 1
@<TRIPOS>MOLECULE
CHEMBL549597
   41    44     0     0     0
SMALL
USER_CHARGES

@<TRIPOS>ATOM
      1 C1         -0.0163    1.3512    0.0095 C.2       1 <0>        -0.1801
      2 C2          1.3081    1.7995   -0.0008 C.2       1 <0>        -0.0728
      3 C3          2.1126    0.6813   -0.0144 C.2       1 <0>        -0.0732
      4 C4          3.5658    0.5029   -0.0288 C.2       1 <0>         0.5842
      5 O1          4.3019    1.4727   -0.0304 O.2       1 <0>        -0.4848
      6 N1          4.0837   -0.7415   -0.0400 N.am      1 <0>        -0.6537
      7 H1          5.0461   -0.8624   -0.0495 H         1 <0>         0.4279
      8 C5          3.2458   -1.8567   -0.0374 C.ar      1 <0>         0.1917
      9 C6          3.7976   -3.1323   -0.0485 C.ar      1 <0>        -0.1303
     10 C7          2.9753   -4.2410   -0.0461 C.ar      1 <0>        -0.0625
     11 C8          1.5997   -4.0887   -0.0323 C.ar      1 <0>        -0.1658
     12 C9          1.0413   -2.8259   -0.0213 C.ar      1 <0>        -0.0791
     13 C10         1.8600   -1.7046   -0.0235 C.ar      1 <0>         0.1006
     14 N2          1.2908   -0.4267   -0.0125 N.pl3     1 <0>        -0.3838
     15 C11         0.0021   -0.0041    0.0020 C.2       1 <0>         0.0266
     16 C12         0.7091   -5.3043   -0.0299 C.3       1 <0>         0.0485
     17 N3          0.4328   -5.7061    1.3558 N.4       1 <0>        -0.3822
     18 C13        -0.3355   -4.6501    2.0260 C.3       1 <0>        -0.0137
     19 C14        -0.5563   -5.0272    3.4924 C.3       1 <0>        -0.1448
     20 C15        -1.3300   -6.3469    3.5635 C.3       1 <0>        -0.1393
     21 C16        -0.5553   -7.4233    2.7978 C.3       1 <0>        -0.1464
     22 C17        -0.3345   -6.9574    1.3570 C.3       1 <0>        -0.0071
     23 H2         -0.8981    1.9747    0.0252 H         1 <0>         0.1629
     24 H3          1.6379    2.8279    0.0013 H         1 <0>         0.1622
     25 H4          4.8704   -3.2562   -0.0593 H         1 <0>         0.1542
     26 H5          3.4068   -5.2310   -0.0555 H         1 <0>         0.1465
     27 H6         -0.0325   -2.7104   -0.0112 H         1 <0>         0.1450
     28 H7         -0.8682   -0.6436    0.0066 H         1 <0>         0.1763
     29 H8         -0.2284   -5.0688   -0.5337 H         1 <0>         0.1369
     30 H9          1.2073   -6.1208   -0.5525 H         1 <0>         0.1422
     31 H10         0.2149   -3.7109    1.9717 H         1 <0>         0.1275
     32 H11        -1.3001   -4.5339    1.5319 H         1 <0>         0.1284
     33 H12         0.4078   -5.1434    3.9875 H         1 <0>         0.0869
     34 H13        -1.1284   -4.2427    3.9878 H         1 <0>         0.1112
     35 H14        -1.4407   -6.6489    4.6050 H         1 <0>         0.0943
     36 H15        -2.3144   -6.2170    3.1139 H         1 <0>         0.0820
     37 H16         0.4088   -7.5892    3.2785 H         1 <0>         0.0876
     38 H17        -1.1267   -8.3516    2.7966 H         1 <0>         0.1129
     39 H18        -1.2992   -6.7921    0.8773 H         1 <0>         0.1293
     40 H19         0.2166   -7.7216    0.8090 H         1 <0>         0.1315
     41 H20         1.3044   -5.8467    1.8443 H         1 <0>         0.4223
@<TRIPOS>BOND
     1    1   15 2
     2    1    2 1
     3    1   23 1
     4    2    3 2
     5    2   24 1
     6    3   14 1
     7    3    4 1
     8    4    5 2
     9    4    6 am
    10    6    7 1
    11    6    8 1
    12    8   13 ar
    13    8    9 ar
    14    9   10 ar
    15    9   25 1
    16   10   11 ar
    17   10   26 1
    18   11   12 ar
    19   11   16 1
    20   12   13 ar
    21   12   27 1
    22   13   14 1
    23   14   15 1
    24   15   28 1
    25   16   17 1
    26   16   29 1
    27   16   30 1
    28   17   22 1
    29   17   18 1
    30   17   41 1
    31   18   19 1
    32   18   31 1
    33   18   32 1
    34   19   20 1
    35   19   33 1
    36   19   34 1
    37   20   21 1
    38   20   35 1
    39   20   36 1
    40   21   22 1
    41   21   37 1
    42   21   38 1
    43   22   39 1
    44   22   40 1
@<TRIPOS>MOLECULE
CHEMBL549596
   35    38     0     0     0
SMALL
USER_CHARGES

@<TRIPOS>ATOM
      1 C1         -0.0163    1.3512    0.0095 C.2       1 <0>        -0.1804
      2 C2          1.3081    1.7995   -0.0008 C.2       1 <0>        -0.0725
      3 C3          2.1126    0.6813   -0.0144 C.2       1 <0>        -0.0740
      4 C4          3.5658    0.5029   -0.0288 C.2       1 <0>         0.5843
      5 O1          4.3019    1.4727   -0.0304 O.2       1 <0>        -0.4843
      6 N1          4.0837   -0.7415   -0.0400 N.am      1 <0>        -0.6537
      7 H1          5.0461   -0.8624   -0.0495 H         1 <0>         0.4280
      8 C5          3.2458   -1.8567   -0.0374 C.ar      1 <0>         0.1938
      9 C6          3.7976   -3.1323   -0.0485 C.ar      1 <0>        -0.1318
     10 C7          2.9753   -4.2410   -0.0461 C.ar      1 <0>        -0.0613
     11 C8          1.5997   -4.0887   -0.0323 C.ar      1 <0>        -0.1737
     12 C9          1.0413   -2.8259   -0.0213 C.ar      1 <0>        -0.0742
     13 C10         1.8600   -1.7046   -0.0235 C.ar      1 <0>         0.0993
     14 N2          1.2908   -0.4267   -0.0125 N.pl3     1 <0>        -0.3842
     15 C11         0.0021   -0.0041    0.0020 C.2       1 <0>         0.0274
     16 C12         0.7091   -5.3043   -0.0299 C.3       1 <0>         0.0564
     17 N3          0.4328   -5.7061    1.3558 N.4       1 <0>        -0.4803
     18 C13        -0.4355   -6.8911    1.3581 C.3       1 <0>        -0.0849
     19 C14        -1.8280   -6.7453    1.9751 C.3       1 <0>        -0.1548
     20 C15        -0.7448   -7.5375    2.7099 C.3       1 <0>        -0.1545
     21 H2         -0.8981    1.9747    0.0252 H         1 <0>         0.1631
     22 H3          1.6379    2.8279    0.0013 H         1 <0>         0.1623
     23 H4          4.8704   -3.2562   -0.0593 H         1 <0>         0.1543
     24 H5          3.4068   -5.2310   -0.0555 H         1 <0>         0.1469
     25 H6         -0.0325   -2.7104   -0.0112 H         1 <0>         0.1457
     26 H7         -0.8682   -0.6436    0.0066 H         1 <0>         0.1769
     27 H8         -0.2284   -5.0688   -0.5337 H         1 <0>         0.1399
     28 H9          1.2073   -6.1208   -0.5525 H         1 <0>         0.1429
     29 H10         1.3006   -5.9241    1.8221 H         1 <0>         0.4288
     30 H11        -0.3329   -7.5507    0.4965 H         1 <0>         0.1793
     31 H12        -2.0999   -5.7702    2.3792 H         1 <0>         0.1207
     32 H13        -2.6419   -7.3091    1.5192 H         1 <0>         0.1342
     33 H14        -0.8461   -8.6225    2.7375 H         1 <0>         0.1346
     34 H15        -0.3040   -7.0836    3.5975 H         1 <0>         0.1210
     35 H16        -0.0284   -4.9503    1.8396 H         1 <0>         0.4246
@<TRIPOS>BOND
     1    1   15 2
     2    1    2 1
     3    1   21 1
     4    2    3 2
     5    2   22 1
     6    3   14 1
     7    3    4 1
     8    4    5 2
     9    4    6 am
    10    6    7 1
    11    6    8 1
    12    8   13 ar
    13    8    9 ar
    14    9   10 ar
    15    9   23 1
    16   10   11 ar
    17   10   24 1
    18   11   12 ar
    19   11   16 1
    20   12   13 ar
    21   12   25 1
    22   13   14 1
    23   14   15 1
    24   15   26 1
    25   16   17 1
    26   16   27 1
    27   16   28 1
    28   17   18 1
    29   17   29 1
    30   17   35 1
    31   18   20 1
    32   18   19 1
    33   18   30 1
    34   19   20 1
    35   19   31 1
    36   19   32 1
    37   20   33 1
    38   20   34 1
@<TRIPOS>MOLECULE
CHEMBL81077
   45    48     0     0     0
SMALL
USER_CHARGES

@<TRIPOS>ATOM
      1 C1         -0.0166    1.3752    0.0096 C.ar      1 <0>        -0.1079
      2 C2          1.1704    2.0863    0.0021 C.ar      1 <0>        -0.0800
      3 C3          2.3827    1.4202   -0.0131 C.ar      1 <0>        -0.1577
      4 C4          2.4154    0.0408   -0.0208 C.ar      1 <0>        -0.0476
      5 C5          1.2219   -0.6823   -0.0133 C.ar      1 <0>        -0.0144
      6 C6          0.0021   -0.0041    0.0020 C.ar      1 <0>        -0.0730
      7 C7          1.2494   -2.1607   -0.0220 C.2       1 <0>         0.3052
      8 N1          0.1463   -2.9685   -0.0213 N.pl3     1 <0>        -0.5895
      9 H1         -0.7798   -2.6800   -0.0156 H         1 <0>         0.4267
     10 C8          0.6002   -4.2739   -0.0311 C.ar      1 <0>         0.0477
     11 C9         -0.0293   -5.5098   -0.0356 C.ar      1 <0>        -0.0799
     12 C10         0.7192   -6.6710   -0.0459 C.ar      1 <0>        -0.1020
     13 C11         2.1009   -6.6195   -0.0519 C.ar      1 <0>        -0.0805
     14 C12         2.7595   -5.3925   -0.0476 C.ar      1 <0>        -0.0892
     15 C13         2.0042   -4.1992   -0.0375 C.ar      1 <0>         0.1015
     16 N2          2.3363   -2.8961   -0.0373 N.2       1 <0>        -0.4470
     17 C14         4.2321   -5.3397   -0.0534 C.2       1 <0>         0.5622
     18 O1          4.8021   -4.2654   -0.0496 O.2       1 <0>        -0.5216
     19 N3          4.9474   -6.4820   -0.0630 N.am      1 <0>        -0.8517
     20 C15         3.6706    2.2028   -0.0217 C.3       1 <0>         0.0490
     21 N4          4.1025    2.4500    1.3604 N.4       1 <0>        -0.3933
     22 C16         4.5193    1.1771    2.0023 C.3       1 <0>        -0.0078
     23 C17         5.4361    1.6471    3.1596 C.3       1 <0>        -0.1445
     24 C18         6.1873    2.8476    2.5396 C.3       1 <0>        -0.1448
     25 C19         5.2995    3.3188    1.3730 C.3       1 <0>        -0.0086
     26 H2         -0.9597    1.9012    0.0260 H         1 <0>         0.1438
     27 H3          1.1503    3.1661    0.0077 H         1 <0>         0.1373
     28 H4          3.3625   -0.4781   -0.0330 H         1 <0>         0.1496
     29 H5         -0.9251   -0.5579    0.0079 H         1 <0>         0.1327
     30 H6         -1.1079   -5.5646   -0.0307 H         1 <0>         0.1344
     31 H7          0.2201   -7.6287   -0.0490 H         1 <0>         0.1454
     32 H8          2.6724   -7.5358   -0.0596 H         1 <0>         0.1399
     33 H9          4.4928   -7.3389   -0.0661 H         1 <0>         0.4012
     34 H10         5.9168   -6.4472   -0.0669 H         1 <0>         0.4076
     35 H11         4.4382    1.6335   -0.5459 H         1 <0>         0.1385
     36 H12         3.5139    3.1546   -0.5292 H         1 <0>         0.1387
     37 H13         3.6537    0.6407    2.3909 H         1 <0>         0.1329
     38 H14         5.0747    0.5557    1.2997 H         1 <0>         0.1364
     39 H15         4.8427    1.9645    4.0171 H         1 <0>         0.0964
     40 H16         6.1344    0.8595    3.4426 H         1 <0>         0.1167
     41 H17         6.2998    3.6442    3.2751 H         1 <0>         0.1043
     42 H18         7.1631    2.5330    2.1694 H         1 <0>         0.1041
     43 H19         5.8399    3.2199    0.4316 H         1 <0>         0.1317
     44 H20         5.0036    4.3564    1.5271 H         1 <0>         0.1319
     45 H21         3.3562    2.8784    1.8873 H         1 <0>         0.4252
@<TRIPOS>BOND
     1    1    6 ar
     2    1    2 ar
     3    1   26 1
     4    2    3 ar
     5    2   27 1
     6    3    4 ar
     7    3   20 1
     8    4    5 ar
     9    4   28 1
    10    5    6 ar
    11    5    7 1
    12    6   29 1
    13    7   16 2
    14    7    8 1
    15    8    9 1
    16    8   10 1
    17   10   15 ar
    18   10   11 ar
    19   11   12 ar
    20   11   30 1
    21   12   13 ar
    22   12   31 1
    23   13   14 ar
    24   13   32 1
    25   14   15 ar
    26   14   17 1
    27   15   16 1
    28   17   18 2
    29   17   19 am
    30   19   33 1
    31   19   34 1
    32   20   21 1
    33   20   35 1
    34   20   36 1
    35   21   25 1
    36   21   22 1
    37   21   45 1
    38   22   23 1
    39   22   37 1
    40   22   38 1
    41   23   24 1
    42   23   39 1
    43   23   40 1
    44   24   25 1
    45   24   41 1
    46   24   42 1
    47   25   43 1
    48   25   44 1
@<TRIPOS>MOLECULE
CHEMBL479780
   44    46     0     0     0
SMALL
USER_CHARGES

@<TRIPOS>ATOM
      1 C1          0.0205    1.3340    0.2863 C.3       1 <0>        -0.1880
      2 C2          0.0575   -0.1814    0.0782 C.3       1 <0>         0.1574
      3 C3          0.9631   -0.8191    1.1337 C.3       1 <0>        -0.1810
      4 C4         -1.3359   -0.7404    0.2077 C.2       1 <0>         0.2305
      5 N1         -2.1159   -0.6396    1.3156 N.pl3     1 <0>        -0.5717
      6 H1         -1.8794   -0.2027    2.1487 H         1 <0>         0.4317
      7 C5         -3.3093   -1.2757    1.0327 C.ar      1 <0>         0.0565
      8 C6         -4.4757   -1.5000    1.7498 C.ar      1 <0>        -0.0802
      9 C7         -5.5235   -2.1901    1.1725 C.ar      1 <0>        -0.0910
     10 C8         -5.4265   -2.6651   -0.1225 C.ar      1 <0>        -0.0760
     11 C9         -4.2675   -2.4535   -0.8646 C.ar      1 <0>        -0.0835
     12 C10        -3.1910   -1.7501   -0.2840 C.ar      1 <0>         0.1014
     13 N2         -1.9717   -1.3865   -0.7282 N.2       1 <0>        -0.4621
     14 C11        -4.1659   -2.9602   -2.2451 C.2       1 <0>         0.5620
     15 O1         -3.1513   -2.7725   -2.8886 O.2       1 <0>        -0.5241
     16 N3         -5.1977   -3.6314   -2.7942 N.am      1 <0>        -0.8481
     17 N4          0.5820   -0.4790   -1.2614 N.4       1 <0>        -0.4911
     18 C12         1.9911   -0.0708   -1.3374 C.3       1 <0>         0.0119
     19 C13         2.0956    1.4683   -1.3473 C.3       1 <0>        -0.1480
     20 C14         3.2664    1.7633   -2.3175 C.3       1 <0>        -0.1264
     21 C15         3.0717    0.6956   -3.4227 C.3       1 <0>        -0.1304
     22 C16         2.6117   -0.5620   -2.6569 C.3       1 <0>        -0.1431
     23 H2          1.0237    1.6940    0.5143 H         1 <0>         0.1118
     24 H3         -0.3411    1.8167   -0.6216 H         1 <0>         0.0917
     25 H4         -0.6475    1.5707    1.1145 H         1 <0>         0.0982
     26 H5          0.5740   -0.5983    2.1276 H         1 <0>         0.1059
     27 H6          0.9895   -1.8987    0.9854 H         1 <0>         0.0917
     28 H7          1.9710   -0.4148    1.0400 H         1 <0>         0.1023
     29 H8         -4.5643   -1.1343    2.7621 H         1 <0>         0.1390
     30 H9         -6.4275   -2.3608    1.7383 H         1 <0>         0.1502
     31 H10        -6.2540   -3.2034   -0.5606 H         1 <0>         0.1441
     32 H11        -6.0070   -3.7811   -2.2809 H         1 <0>         0.4023
     33 H12        -5.1309   -3.9648   -3.7026 H         1 <0>         0.4106
     34 H13         0.5087   -1.4695   -1.4388 H         1 <0>         0.4370
     35 H14         2.5436   -0.4778   -0.4906 H         1 <0>         0.1486
     36 H15         1.1715    1.9110   -1.7189 H         1 <0>         0.0918
     37 H16         2.3241    1.8416   -0.3491 H         1 <0>         0.1025
     38 H17         3.1812    2.7679   -2.7317 H         1 <0>         0.0884
     39 H18         4.2256    1.6307   -1.8170 H         1 <0>         0.0835
     40 H19         2.3052    1.0136   -4.1295 H         1 <0>         0.0786
     41 H20         4.0126    0.5051   -3.9390 H         1 <0>         0.0878
     42 H21         3.4660   -1.2068   -2.4505 H         1 <0>         0.1046
     43 H22         1.8673   -1.1033   -3.2409 H         1 <0>         0.0888
     44 H23         0.0476    0.0268   -1.9518 H         1 <0>         0.4337
@<TRIPOS>BOND
     1    1    2 1
     2    1   23 1
     3    1   24 1
     4    1   25 1
     5    2    3 1
     6    2    4 1
     7    2   17 1
     8    3   26 1
     9    3   27 1
    10    3   28 1
    11    4   13 2
    12    4    5 1
    13    5    6 1
    14    5    7 1
    15    7   12 ar
    16    7    8 ar
    17    8    9 ar
    18    8   29 1
    19    9   10 ar
    20    9   30 1
    21   10   11 ar
    22   10   31 1
    23   11   12 ar
    24   11   14 1
    25   12   13 1
    26   14   15 2
    27   14   16 am
    28   16   32 1
    29   16   33 1
    30   17   18 1
    31   17   34 1
    32   17   44 1
    33   18   22 1
    34   18   19 1
    35   18   35 1
    36   19   20 1
    37   19   36 1
    38   19   37 1
    39   20   21 1
    40   20   38 1
    41   20   39 1
    42   21   22 1
    43   21   40 1
    44   21   41 1
    45   22   42 1
    46   22   43 1
@<TRIPOS>MOLECULE
CHEMBL517843
   41    43     0     0     0
SMALL
USER_CHARGES

@<TRIPOS>ATOM
      1 C1         -0.0187    1.5258    0.0104 C.3       1 <0>        -0.1813
      2 C2          0.0021   -0.0041    0.0020 C.3       1 <0>         0.1567
      3 C3          0.7421   -0.5109    1.2415 C.3       1 <0>        -0.1811
      4 C4         -1.4117   -0.5257    0.0127 C.2       1 <0>         0.2293
      5 N1         -2.3276   -0.2740    0.9841 N.pl3     1 <0>        -0.5712
      6 H1         -2.1906    0.2639    1.7796 H         1 <0>         0.4317
      7 C5         -3.4911   -0.9275    0.6261 C.ar      1 <0>         0.0568
      8 C6         -4.7477   -1.0441    1.2025 C.ar      1 <0>        -0.0804
      9 C7         -5.7297   -1.7907    0.5814 C.ar      1 <0>        -0.0907
     10 C8         -5.4766   -2.4297   -0.6185 C.ar      1 <0>        -0.0760
     11 C9         -4.2243   -2.3288   -1.2188 C.ar      1 <0>        -0.0831
     12 C10        -3.2140   -1.5689   -0.5924 C.ar      1 <0>         0.1011
     13 N2         -1.9369   -1.2797   -0.9110 N.2       1 <0>        -0.4610
     14 C11        -3.9563   -3.0103   -2.4982 C.2       1 <0>         0.5619
     15 O1         -2.8608   -2.9188   -3.0181 O.2       1 <0>        -0.5238
     16 N3         -4.9255   -3.7348   -3.0917 N.am      1 <0>        -0.8481
     17 N4          0.6897   -0.4778   -1.2066 N.4       1 <0>        -0.4918
     18 C12         2.0678    0.0307   -1.2170 C.3       1 <0>         0.0187
     19 C13         2.7840   -0.4628   -2.4758 C.3       1 <0>        -0.2130
     20 C14         3.9850   -1.3916   -2.2871 C.3       1 <0>        -0.1665
     21 C15         4.2002    0.0563   -2.7322 C.3       1 <0>        -0.1485
     22 H2          1.0039    1.9031    0.0027 H         1 <0>         0.1016
     23 H3         -0.5459    1.8868   -0.8726 H         1 <0>         0.0922
     24 H4         -0.5289    1.8773    0.9072 H         1 <0>         0.1058
     25 H5          0.2319   -0.1594    2.1383 H         1 <0>         0.1060
     26 H6          0.7568   -1.6008    1.2356 H         1 <0>         0.0921
     27 H7          1.7647   -0.1336    1.2338 H         1 <0>         0.1010
     28 H8         -4.9584   -0.5500    2.1394 H         1 <0>         0.1391
     29 H9         -6.7048   -1.8766    1.0376 H         1 <0>         0.1502
     30 H10        -6.2542   -3.0104   -1.0923 H         1 <0>         0.1442
     31 H11        -5.7994   -3.8078   -2.6770 H         1 <0>         0.4024
     32 H12        -4.7492   -4.1832   -3.9336 H         1 <0>         0.4106
     33 H13         0.7033   -1.4867   -1.2121 H         1 <0>         0.4383
     34 H14         2.0530    1.1205   -1.2110 H         1 <0>         0.1380
     35 H15         2.5950   -0.3304   -0.3340 H         1 <0>         0.1352
     36 H16         2.1461   -0.6342   -3.3429 H         1 <0>         0.1289
     37 H17         4.2650   -1.6511   -1.2661 H         1 <0>         0.1061
     38 H18         4.1375   -2.1745   -3.0300 H         1 <0>         0.1110
     39 H19         4.4942    0.2260   -3.7680 H         1 <0>         0.1128
     40 H20         4.6217    0.7494   -2.0041 H         1 <0>         0.1076
     41 H21         0.2017   -0.1436   -2.0240 H         1 <0>         0.4372
@<TRIPOS>BOND
     1    1    2 1
     2    1   22 1
     3    1   23 1
     4    1   24 1
     5    2    3 1
     6    2    4 1
     7    2   17 1
     8    3   25 1
     9    3   26 1
    10    3   27 1
    11    4   13 2
    12    4    5 1
    13    5    6 1
    14    5    7 1
    15    7   12 ar
    16    7    8 ar
    17    8    9 ar
    18    8   28 1
    19    9   10 ar
    20    9   29 1
    21   10   11 ar
    22   10   30 1
    23   11   12 ar
    24   11   14 1
    25   12   13 1
    26   14   15 2
    27   14   16 am
    28   16   31 1
    29   16   32 1
    30   17   18 1
    31   17   33 1
    32   17   41 1
    33   18   19 1
    34   18   34 1
    35   18   35 1
    36   19   21 1
    37   19   20 1
    38   19   36 1
    39   20   21 1
    40   20   37 1
    41   20   38 1
    42   21   39 1
    43   21   40 1
@<TRIPOS>MOLECULE
CHEMBL598088
   40    42     0     0     0
SMALL
USER_CHARGES

@<TRIPOS>ATOM
      1 C1         -0.0167    1.3779    0.0096 C.ar      1 <0>        -0.0879
      2 C2          1.1693    2.0931    0.0021 C.ar      1 <0>        -0.0767
      3 C3          2.3786    1.4315   -0.0130 C.ar      1 <0>        -0.0931
      4 C4          2.4206    0.0389   -0.0209 C.ar      1 <0>        -0.1091
      5 C5          1.2153   -0.6868   -0.0133 C.ar      1 <0>        -0.0662
      6 C6          0.0021   -0.0041    0.0020 C.ar      1 <0>        -0.0934
      7 C7          1.2370   -2.1661   -0.0219 C.2       1 <0>         0.5419
      8 O1          2.2982   -2.7583   -0.0357 O.2       1 <0>        -0.4929
      9 N1          0.0798   -2.8571   -0.0146 N.am      1 <0>        -0.8517
     10 C8          3.8352   -0.3832   -0.0372 C.2       1 <0>         0.5486
     11 O2          4.2160   -1.5374   -0.0471 O.2       1 <0>        -0.4673
     12 N2          4.6417    0.6924   -0.0393 N.am      1 <0>        -0.6251
     13 C9          3.8117    1.9023   -0.0246 C.3       1 <0>         0.1437
     14 C10         6.1063    0.6616   -0.0540 C.3       1 <0>         0.1427
     15 C11         6.6019    0.6593   -1.5015 C.3       1 <0>        -0.1209
     16 C12         6.1718   -0.6404   -2.1879 C.3       1 <0>        -0.1421
     17 C13         6.7379   -0.6716   -3.6092 C.3       1 <0>        -0.0057
     18 N3          8.2033   -0.6055   -3.5576 N.4       1 <0>        -0.5056
     19 C14         8.6238    0.6701   -2.9657 C.3       1 <0>        -0.0045
     20 C15         8.1303    0.7530   -1.5196 C.3       1 <0>        -0.1425
     21 H1         -0.9605    1.9026    0.0260 H         1 <0>         0.1455
     22 H2          1.1466    3.1728    0.0078 H         1 <0>         0.1405
     23 H3         -0.9265   -0.5555    0.0079 H         1 <0>         0.1399
     24 H4         -0.7672   -2.3845   -0.0036 H         1 <0>         0.3998
     25 H5          0.0940   -3.8270   -0.0203 H         1 <0>         0.4090
     26 H6          4.0028    2.4984   -0.9169 H         1 <0>         0.0956
     27 H7          4.0205    2.4888    0.8701 H         1 <0>         0.0998
     28 H8          6.4933    1.5407    0.4611 H         1 <0>         0.0938
     29 H9          6.4558   -0.2388    0.4512 H         1 <0>         0.0929
     30 H10         6.1781    1.5112   -2.0332 H         1 <0>         0.0925
     31 H11         6.5531   -1.4926   -1.6254 H         1 <0>         0.0953
     32 H12         5.0836   -0.6877   -2.2285 H         1 <0>         0.1088
     33 H13         6.4334   -1.5956   -4.1009 H         1 <0>         0.1332
     34 H14         6.3557    0.1808   -4.1709 H         1 <0>         0.1282
     35 H15         8.5538   -1.3674   -2.9965 H         1 <0>         0.4289
     36 H16         9.7117    0.7367   -2.9822 H         1 <0>         0.1348
     37 H17         8.2015    1.4939   -3.5410 H         1 <0>         0.1298
     38 H18         8.4420    1.7016   -1.0825 H         1 <0>         0.1152
     39 H19         8.5523   -0.0703   -0.9432 H         1 <0>         0.0931
     40 H20         8.5754   -0.6802   -4.4925 H         1 <0>         0.4315
@<TRIPOS>BOND
     1    1    6 ar
     2    1    2 ar
     3    1   21 1
     4    2    3 ar
     5    2   22 1
     6    3   13 1
     7    3    4 ar
     8    4    5 ar
     9    4   10 1
    10    5    6 ar
    11    5    7 1
    12    6   23 1
    13    7    8 2
    14    7    9 am
    15    9   24 1
    16    9   25 1
    17   10   11 2
    18   10   12 am
    19   12   13 1
    20   12   14 1
    21   13   26 1
    22   13   27 1
    23   14   15 1
    24   14   28 1
    25   14   29 1
    26   15   20 1
    27   15   16 1
    28   15   30 1
    29   16   17 1
    30   16   31 1
    31   16   32 1
    32   17   18 1
    33   17   33 1
    34   17   34 1
    35   18   19 1
    36   18   35 1
    37   18   40 1
    38   19   20 1
    39   19   36 1
    40   19   37 1
    41   20   38 1
    42   20   39 1
@<TRIPOS>MOLECULE
CHEMBL197469
   54    57     0     0     0
SMALL
USER_CHARGES

@<TRIPOS>ATOM
      1 C1         -0.0167    1.3792    0.0096 C.ar      1 <0>        -0.1027
      2 C2          1.1683    2.0931    0.0021 C.ar      1 <0>        -0.1154
      3 C3          2.3774    1.4286   -0.0134 C.ar      1 <0>        -0.1018
      4 C4          2.4032    0.0335   -0.0212 C.ar      1 <0>        -0.0839
      5 C5          1.2045   -0.6806   -0.0131 C.ar      1 <0>        -0.1011
      6 C6          0.0021   -0.0041    0.0020 C.ar      1 <0>        -0.1150
      7 C7          3.6950   -0.6848   -0.0384 C.2       1 <0>        -0.0456
      8 C8          4.4943   -0.5772    1.0009 C.2       1 <0>        -0.1887
      9 C9          5.8233   -1.2710    1.0843 C.3       1 <0>         0.0341
     10 N1          6.2689   -1.6856   -0.2511 N.4       1 <0>        -0.3853
     11 C10         5.1971   -2.4623   -0.8938 C.3       1 <0>        -0.0033
     12 C11         4.0456   -1.5174   -1.2408 C.3       1 <0>        -0.1138
     13 C12         7.4741   -2.5169   -0.1311 C.3       1 <0>        -0.0125
     14 C13         8.6201   -1.6750    0.4337 C.3       1 <0>        -0.1324
     15 C14         9.8754   -2.5408    0.5587 C.3       1 <0>        -0.0672
     16 C15        11.0042   -1.7116    1.1150 C.2       1 <0>         0.3758
     17 N2         10.7973   -0.4722    1.4030 N.2       1 <0>        -0.5391
     18 C16        11.8740    0.3617    1.9327 C.3       1 <0>         0.0794
     19 C17        11.5713    1.8393    1.6995 C.3       1 <0>        -0.1337
     20 C18        11.5840    2.1373    0.1983 C.3       1 <0>         0.0591
     21 O1         12.8563    1.7670   -0.3393 O.3       1 <0>        -0.3659
     22 C19        13.1494    0.3748   -0.2187 C.3       1 <0>         0.0794
     23 C20        13.1953   -0.0207    1.2600 C.3       1 <0>        -0.1655
     24 C21        13.3475   -1.5239    1.3492 C.2       1 <0>         0.5252
     25 O2         14.4445   -2.0292    1.4567 O.2       1 <0>        -0.4857
     26 N3         12.2360   -2.2921    1.3119 N.am      1 <0>        -0.6950
     27 H1         -0.9604    1.9041    0.0260 H         1 <0>         0.1297
     28 H2          1.1469    3.1729    0.0082 H         1 <0>         0.1300
     29 H3          3.3018    1.9870   -0.0200 H         1 <0>         0.1239
     30 H4          1.2178   -1.7605   -0.0194 H         1 <0>         0.1242
     31 H5         -0.9265   -0.5556    0.0079 H         1 <0>         0.1302
     32 H6          4.1807    0.0380    1.8312 H         1 <0>         0.1505
     33 H7          6.5585   -0.5912    1.5147 H         1 <0>         0.1426
     34 H8          5.7318   -2.1497    1.7228 H         1 <0>         0.1383
     35 H9          5.5771   -2.9272   -1.8035 H         1 <0>         0.1378
     36 H10         4.8408   -3.2312   -0.2083 H         1 <0>         0.1328
     37 H11         3.1757   -2.0990   -1.5459 H         1 <0>         0.1250
     38 H12         4.3502   -0.8642   -2.0585 H         1 <0>         0.1072
     39 H13         7.2735   -3.3533    0.5384 H         1 <0>         0.1323
     40 H14         7.7527   -2.8970   -1.1140 H         1 <0>         0.1338
     41 H15         8.8208   -0.8386   -0.2358 H         1 <0>         0.0980
     42 H16         8.3416   -1.2949    1.4166 H         1 <0>         0.0998
     43 H17         9.6748   -3.3772    1.2282 H         1 <0>         0.1045
     44 H18        10.1540   -2.9209   -0.4242 H         1 <0>         0.1055
     45 H19        11.9598    0.1909    3.0058 H         1 <0>         0.0904
     46 H20        10.5893    2.0773    2.1083 H         1 <0>         0.0884
     47 H21        12.3274    2.4473    2.1964 H         1 <0>         0.0861
     48 H22        10.7990    1.5634   -0.2941 H         1 <0>         0.0554
     49 H23        11.4156    3.2020    0.0363 H         1 <0>         0.1015
     50 H24        12.3759   -0.2033   -0.7244 H         1 <0>         0.0507
     51 H25        14.1150    0.1667   -0.6795 H         1 <0>         0.1069
     52 H26        14.0265    0.4809    1.7557 H         1 <0>         0.1324
     53 H27        12.3060   -3.2534    1.4209 H         1 <0>         0.4157
     54 H28         6.4742   -0.8691   -0.8071 H         1 <0>         0.4266
@<TRIPOS>BOND
     1    1    6 ar
     2    1    2 ar
     3    1   27 1
     4    2    3 ar
     5    2   28 1
     6    3    4 ar
     7    3   29 1
     8    4    5 ar
     9    4    7 1
    10    5    6 ar
    11    5   30 1
    12    6   31 1
    13    7   12 1
    14    7    8 2
    15    8    9 1
    16    8   32 1
    17    9   10 1
    18    9   33 1
    19    9   34 1
    20   10   11 1
    21   10   13 1
    22   10   54 1
    23   11   12 1
    24   11   35 1
    25   11   36 1
    26   12   37 1
    27   12   38 1
    28   13   14 1
    29   13   39 1
    30   13   40 1
    31   14   15 1
    32   14   41 1
    33   14   42 1
    34   15   16 1
    35   15   43 1
    36   15   44 1
    37   16   26 1
    38   16   17 2
    39   17   18 1
    40   18   23 1
    41   18   19 1
    42   18   45 1
    43   19   20 1
    44   19   46 1
    45   19   47 1
    46   20   21 1
    47   20   48 1
    48   20   49 1
    49   21   22 1
    50   22   23 1
    51   22   50 1
    52   22   51 1
    53   23   24 1
    54   23   52 1
    55   24   25 2
    56   24   26 am
    57   26   53 1
@<TRIPOS>MOLECULE
CHEMBL197469__1
   54    57     0     0     0
SMALL
USER_CHARGES

@<TRIPOS>ATOM
      1 C1         -0.0167    1.3792    0.0096 C.ar      1 <0>        -0.1028
      2 C2          1.1683    2.0931    0.0021 C.ar      1 <0>        -0.1154
      3 C3          2.3774    1.4286   -0.0134 C.ar      1 <0>        -0.1019
      4 C4          2.4032    0.0335   -0.0212 C.ar      1 <0>        -0.0838
      5 C5          1.2045   -0.6806   -0.0131 C.ar      1 <0>        -0.1012
      6 C6          0.0021   -0.0041    0.0020 C.ar      1 <0>        -0.1150
      7 C7          3.6950   -0.6848   -0.0384 C.2       1 <0>        -0.0458
      8 C8          4.4943   -0.5772    1.0009 C.2       1 <0>        -0.1885
      9 C9          5.8233   -1.2710    1.0843 C.3       1 <0>         0.0340
     10 N1          6.2689   -1.6856   -0.2511 N.4       1 <0>        -0.3852
     11 C10         5.1971   -2.4623   -0.8938 C.3       1 <0>        -0.0033
     12 C11         4.0456   -1.5174   -1.2408 C.3       1 <0>        -0.1138
     13 C12         7.4741   -2.5169   -0.1311 C.3       1 <0>        -0.0124
     14 C13         8.6201   -1.6750    0.4337 C.3       1 <0>        -0.1321
     15 C14         9.8754   -2.5408    0.5587 C.3       1 <0>        -0.0688
     16 C15        11.0042   -1.7116    1.1150 C.2       1 <0>         0.3783
     17 N2         10.7850   -0.4707    1.3998 N.2       1 <0>        -0.5376
     18 C16        11.8527    0.3406    1.9674 C.3       1 <0>         0.0775
     19 C17        11.6397    1.8373    1.7650 C.3       1 <0>        -0.1300
     20 C18        12.8207    2.5787    2.4065 C.3       1 <0>         0.0547
     21 O1         14.0549    2.1165    1.8598 O.3       1 <0>        -0.3719
     22 C19        14.3056    0.7140    2.0164 C.3       1 <0>         0.0841
     23 C20        13.1856   -0.0518    1.3195 C.3       1 <0>        -0.1726
     24 C21        13.3447   -1.5427    1.4421 C.2       1 <0>         0.5296
     25 O2         14.4268   -2.0454    1.6578 O.2       1 <0>        -0.4823
     26 N3         12.2297   -2.3029    1.3071 N.am      1 <0>        -0.6946
     27 H1         -0.9604    1.9041    0.0260 H         1 <0>         0.1297
     28 H2          1.1469    3.1729    0.0082 H         1 <0>         0.1300
     29 H3          3.3018    1.9870   -0.0200 H         1 <0>         0.1239
     30 H4          1.2178   -1.7605   -0.0194 H         1 <0>         0.1242
     31 H5         -0.9265   -0.5556    0.0079 H         1 <0>         0.1302
     32 H6          4.1807    0.0380    1.8312 H         1 <0>         0.1504
     33 H7          6.5585   -0.5912    1.5147 H         1 <0>         0.1427
     34 H8          5.7318   -2.1497    1.7228 H         1 <0>         0.1383
     35 H9          5.5771   -2.9272   -1.8035 H         1 <0>         0.1378
     36 H10         4.8408   -3.2312   -0.2083 H         1 <0>         0.1327
     37 H11         3.1757   -2.0990   -1.5459 H         1 <0>         0.1249
     38 H12         4.3502   -0.8642   -2.0585 H         1 <0>         0.1072
     39 H13         7.2735   -3.3533    0.5384 H         1 <0>         0.1321
     40 H14         7.7527   -2.8970   -1.1140 H         1 <0>         0.1338
     41 H15         8.8208   -0.8386   -0.2358 H         1 <0>         0.0991
     42 H16         8.3416   -1.2949    1.4166 H         1 <0>         0.0992
     43 H17         9.6748   -3.3772    1.2282 H         1 <0>         0.1045
     44 H18        10.1540   -2.9209   -0.4242 H         1 <0>         0.1055
     45 H19        11.9116    0.1462    3.0383 H         1 <0>         0.0844
     46 H20        11.5990    2.0625    0.6993 H         1 <0>         0.0790
     47 H21        10.7093    2.1445    2.2425 H         1 <0>         0.0884
     48 H22        12.7207    3.6475    2.2178 H         1 <0>         0.1071
     49 H23        12.8148    2.4034    3.4823 H         1 <0>         0.0556
     50 H24        15.2632    0.4589    1.5625 H         1 <0>         0.1140
     51 H25        14.3210    0.4594    3.0762 H         1 <0>         0.0629
     52 H26        13.1668    0.2174    0.2634 H         1 <0>         0.1211
     53 H27        12.2972   -3.2698    1.3428 H         1 <0>         0.4153
     54 H28         6.4742   -0.8691   -0.8071 H         1 <0>         0.4268
@<TRIPOS>BOND
     1    1    6 ar
     2    1    2 ar
     3    1   27 1
     4    2    3 ar
     5    2   28 1
     6    3    4 ar
     7    3   29 1
     8    4    5 ar
     9    4    7 1
    10    5    6 ar
    11    5   30 1
    12    6   31 1
    13    7   12 1
    14    7    8 2
    15    8    9 1
    16    8   32 1
    17    9   10 1
    18    9   33 1
    19    9   34 1
    20   10   11 1
    21   10   13 1
    22   10   54 1
    23   11   12 1
    24   11   35 1
    25   11   36 1
    26   12   37 1
    27   12   38 1
    28   13   14 1
    29   13   39 1
    30   13   40 1
    31   14   15 1
    32   14   41 1
    33   14   42 1
    34   15   16 1
    35   15   43 1
    36   15   44 1
    37   16   26 1
    38   16   17 2
    39   17   18 1
    40   18   23 1
    41   18   19 1
    42   18   45 1
    43   19   20 1
    44   19   46 1
    45   19   47 1
    46   20   21 1
    47   20   48 1
    48   20   49 1
    49   21   22 1
    50   22   23 1
    51   22   50 1
    52   22   51 1
    53   23   24 1
    54   23   52 1
    55   24   25 2
    56   24   26 am
    57   26   53 1
@<TRIPOS>MOLECULE
CHEMBL197469__2
   54    57     0     0     0
SMALL
USER_CHARGES

@<TRIPOS>ATOM
      1 C1         -0.0167    1.3792    0.0096 C.ar      1 <0>        -0.1028
      2 C2          1.1683    2.0931    0.0021 C.ar      1 <0>        -0.1154
      3 C3          2.3774    1.4286   -0.0134 C.ar      1 <0>        -0.1019
      4 C4          2.4032    0.0335   -0.0212 C.ar      1 <0>        -0.0837
      5 C5          1.2045   -0.6806   -0.0131 C.ar      1 <0>        -0.1012
      6 C6          0.0021   -0.0041    0.0020 C.ar      1 <0>        -0.1150
      7 C7          3.6950   -0.6848   -0.0384 C.2       1 <0>        -0.0460
      8 C8          4.4943   -0.5772    1.0009 C.2       1 <0>        -0.1883
      9 C9          5.8233   -1.2710    1.0843 C.3       1 <0>         0.0338
     10 N1          6.2689   -1.6856   -0.2511 N.4       1 <0>        -0.3852
     11 C10         5.1971   -2.4623   -0.8938 C.3       1 <0>        -0.0033
     12 C11         4.0456   -1.5174   -1.2408 C.3       1 <0>        -0.1138
     13 C12         7.4741   -2.5169   -0.1311 C.3       1 <0>        -0.0125
     14 C13         8.6201   -1.6750    0.4337 C.3       1 <0>        -0.1321
     15 C14         9.8754   -2.5408    0.5587 C.3       1 <0>        -0.0687
     16 C15        11.0042   -1.7116    1.1150 C.2       1 <0>         0.3785
     17 N2         10.7850   -0.4707    1.3998 N.2       1 <0>        -0.5375
     18 C16        11.8694    0.3570    1.9091 C.3       1 <0>         0.0773
     19 C17        11.3792    1.5831    2.6726 C.3       1 <0>        -0.1299
     20 C18        12.6070    2.3701    3.1507 C.3       1 <0>         0.0547
     21 O1         13.4598    1.5355    3.9330 O.3       1 <0>        -0.3719
     22 C19        13.9467    0.3637    3.2669 C.3       1 <0>         0.0840
     23 C20        12.7472   -0.4798    2.8471 C.3       1 <0>        -0.1732
     24 C21        13.1509   -1.7319    2.1175 C.2       1 <0>         0.5296
     25 O2         14.2557   -2.2124    2.2540 O.2       1 <0>        -0.4829
     26 N3         12.2297   -2.3029    1.3071 N.am      1 <0>        -0.6937
     27 H1         -0.9604    1.9041    0.0260 H         1 <0>         0.1297
     28 H2          1.1469    3.1729    0.0082 H         1 <0>         0.1300
     29 H3          3.3018    1.9870   -0.0200 H         1 <0>         0.1239
     30 H4          1.2178   -1.7605   -0.0194 H         1 <0>         0.1242
     31 H5         -0.9265   -0.5556    0.0079 H         1 <0>         0.1302
     32 H6          4.1807    0.0380    1.8312 H         1 <0>         0.1505
     33 H7          6.5585   -0.5912    1.5147 H         1 <0>         0.1428
     34 H8          5.7318   -2.1497    1.7228 H         1 <0>         0.1383
     35 H9          5.5771   -2.9272   -1.8035 H         1 <0>         0.1378
     36 H10         4.8408   -3.2312   -0.2083 H         1 <0>         0.1327
     37 H11         3.1757   -2.0990   -1.5459 H         1 <0>         0.1249
     38 H12         4.3502   -0.8642   -2.0585 H         1 <0>         0.1071
     39 H13         7.2735   -3.3533    0.5384 H         1 <0>         0.1320
     40 H14         7.7527   -2.8970   -1.1140 H         1 <0>         0.1339
     41 H15         8.8208   -0.8386   -0.2358 H         1 <0>         0.0991
     42 H16         8.3416   -1.2949    1.4166 H         1 <0>         0.0992
     43 H17         9.6748   -3.3772    1.2282 H         1 <0>         0.1055
     44 H18        10.1540   -2.9209   -0.4242 H         1 <0>         0.1047
     45 H19        12.4765    0.6976    1.0703 H         1 <0>         0.0844
     46 H20        10.7744    2.2081    2.0156 H         1 <0>         0.0885
     47 H21        10.7861    1.2689    3.5314 H         1 <0>         0.0789
     48 H22        13.1583    2.7387    2.2856 H         1 <0>         0.0556
     49 H23        12.2798    3.2172    3.7536 H         1 <0>         0.1071
     50 H24        14.5192    0.6529    2.3855 H         1 <0>         0.0628
     51 H25        14.5793   -0.2088    3.9453 H         1 <0>         0.1139
     52 H26        12.1715   -0.7542    3.7311 H         1 <0>         0.1210
     53 H27        12.4386   -3.1353    0.8551 H         1 <0>         0.4150
     54 H28         6.4742   -0.8691   -0.8071 H         1 <0>         0.4267
@<TRIPOS>BOND
     1    1    6 ar
     2    1    2 ar
     3    1   27 1
     4    2    3 ar
     5    2   28 1
     6    3    4 ar
     7    3   29 1
     8    4    5 ar
     9    4    7 1
    10    5    6 ar
    11    5   30 1
    12    6   31 1
    13    7   12 1
    14    7    8 2
    15    8    9 1
    16    8   32 1
    17    9   10 1
    18    9   33 1
    19    9   34 1
    20   10   11 1
    21   10   13 1
    22   10   54 1
    23   11   12 1
    24   11   35 1
    25   11   36 1
    26   12   37 1
    27   12   38 1
    28   13   14 1
    29   13   39 1
    30   13   40 1
    31   14   15 1
    32   14   41 1
    33   14   42 1
    34   15   16 1
    35   15   43 1
    36   15   44 1
    37   16   26 1
    38   16   17 2
    39   17   18 1
    40   18   23 1
    41   18   19 1
    42   18   45 1
    43   19   20 1
    44   19   46 1
    45   19   47 1
    46   20   21 1
    47   20   48 1
    48   20   49 1
    49   21   22 1
    50   22   23 1
    51   22   50 1
    52   22   51 1
    53   23   24 1
    54   23   52 1
    55   24   25 2
    56   24   26 am
    57   26   53 1
@<TRIPOS>MOLECULE
CHEMBL197469__3
   54    57     0     0     0
SMALL
USER_CHARGES

@<TRIPOS>ATOM
      1 C1         -0.0167    1.3792    0.0096 C.ar      1 <0>        -0.1027
      2 C2          1.1683    2.0931    0.0021 C.ar      1 <0>        -0.1154
      3 C3          2.3774    1.4286   -0.0134 C.ar      1 <0>        -0.1018
      4 C4          2.4032    0.0335   -0.0212 C.ar      1 <0>        -0.0839
      5 C5          1.2045   -0.6806   -0.0131 C.ar      1 <0>        -0.1011
      6 C6          0.0021   -0.0041    0.0020 C.ar      1 <0>        -0.1150
      7 C7          3.6950   -0.6848   -0.0384 C.2       1 <0>        -0.0456
      8 C8          4.4943   -0.5772    1.0009 C.2       1 <0>        -0.1886
      9 C9          5.8233   -1.2710    1.0843 C.3       1 <0>         0.0340
     10 N1          6.2689   -1.6856   -0.2511 N.4       1 <0>        -0.3852
     11 C10         5.1971   -2.4623   -0.8938 C.3       1 <0>        -0.0033
     12 C11         4.0456   -1.5174   -1.2408 C.3       1 <0>        -0.1138
     13 C12         7.4741   -2.5169   -0.1311 C.3       1 <0>        -0.0125
     14 C13         8.6201   -1.6750    0.4337 C.3       1 <0>        -0.1324
     15 C14         9.8754   -2.5408    0.5587 C.3       1 <0>        -0.0670
     16 C15        11.0042   -1.7116    1.1150 C.2       1 <0>         0.3759
     17 N2         10.7973   -0.4722    1.4030 N.2       1 <0>        -0.5390
     18 C16        11.8673    0.3552    1.9560 C.3       1 <0>         0.0792
     19 C17        11.2872    1.5621    2.6882 C.3       1 <0>        -0.1339
     20 C18        10.5136    1.0931    3.9228 C.3       1 <0>         0.0594
     21 O1         11.3902    0.3367    4.7620 O.3       1 <0>        -0.3659
     22 C19        11.8945   -0.8494    4.1477 C.3       1 <0>         0.0795
     23 C20        12.7208   -0.4836    2.9114 C.3       1 <0>        -0.1661
     24 C21        13.1040   -1.7614    2.1964 C.2       1 <0>         0.5252
     25 O2         14.1679   -2.2991    2.4183 O.2       1 <0>        -0.4865
     26 N3         12.2360   -2.2921    1.3119 N.am      1 <0>        -0.6937
     27 H1         -0.9604    1.9041    0.0260 H         1 <0>         0.1297
     28 H2          1.1469    3.1729    0.0082 H         1 <0>         0.1300
     29 H3          3.3018    1.9870   -0.0200 H         1 <0>         0.1239
     30 H4          1.2178   -1.7605   -0.0194 H         1 <0>         0.1242
     31 H5         -0.9265   -0.5556    0.0079 H         1 <0>         0.1302
     32 H6          4.1807    0.0380    1.8312 H         1 <0>         0.1506
     33 H7          6.5585   -0.5912    1.5147 H         1 <0>         0.1423
     34 H8          5.7318   -2.1497    1.7228 H         1 <0>         0.1383
     35 H9          5.5771   -2.9272   -1.8035 H         1 <0>         0.1379
     36 H10         4.8408   -3.2312   -0.2083 H         1 <0>         0.1328
     37 H11         3.1757   -2.0990   -1.5459 H         1 <0>         0.1250
     38 H12         4.3502   -0.8642   -2.0585 H         1 <0>         0.1072
     39 H13         7.2735   -3.3533    0.5384 H         1 <0>         0.1320
     40 H14         7.7527   -2.8970   -1.1140 H         1 <0>         0.1342
     41 H15         8.8208   -0.8386   -0.2358 H         1 <0>         0.0997
     42 H16         8.3416   -1.2949    1.4166 H         1 <0>         0.0981
     43 H17         9.6748   -3.3772    1.2282 H         1 <0>         0.1055
     44 H18        10.1540   -2.9209   -0.4242 H         1 <0>         0.1047
     45 H19        12.4958    0.7138    1.1408 H         1 <0>         0.0904
     46 H20        12.0973    2.2228    2.9970 H         1 <0>         0.0862
     47 H21        10.6142    2.1016    2.0217 H         1 <0>         0.0885
     48 H22        10.1413    1.9588    4.4705 H         1 <0>         0.1015
     49 H23         9.6762    0.4681    3.6128 H         1 <0>         0.0551
     50 H24        12.5236   -1.3858    4.8581 H         1 <0>         0.1068
     51 H25        11.0610   -1.4861    3.8510 H         1 <0>         0.0507
     52 H26        13.6095    0.0740    3.2069 H         1 <0>         0.1322
     53 H27        12.4830   -3.0848    0.8105 H         1 <0>         0.4155
     54 H28         6.4742   -0.8691   -0.8071 H         1 <0>         0.4268
@<TRIPOS>BOND
     1    1    6 ar
     2    1    2 ar
     3    1   27 1
     4    2    3 ar
     5    2   28 1
     6    3    4 ar
     7    3   29 1
     8    4    5 ar
     9    4    7 1
    10    5    6 ar
    11    5   30 1
    12    6   31 1
    13    7   12 1
    14    7    8 2
    15    8    9 1
    16    8   32 1
    17    9   10 1
    18    9   33 1
    19    9   34 1
    20   10   11 1
    21   10   13 1
    22   10   54 1
    23   11   12 1
    24   11   35 1
    25   11   36 1
    26   12   37 1
    27   12   38 1
    28   13   14 1
    29   13   39 1
    30   13   40 1
    31   14   15 1
    32   14   41 1
    33   14   42 1
    34   15   16 1
    35   15   43 1
    36   15   44 1
    37   16   26 1
    38   16   17 2
    39   17   18 1
    40   18   23 1
    41   18   19 1
    42   18   45 1
    43   19   20 1
    44   19   46 1
    45   19   47 1
    46   20   21 1
    47   20   48 1
    48   20   49 1
    49   21   22 1
    50   22   23 1
    51   22   50 1
    52   22   51 1
    53   23   24 1
    54   23   52 1
    55   24   25 2
    56   24   26 am
    57   26   53 1
@<TRIPOS>MOLECULE
CHEMBL494874
   64    68     0     0     0
SMALL
USER_CHARGES

@<TRIPOS>ATOM
      1 C1          3.5483   -0.8690   -3.1806 C.ar      1 <0>        -0.0870
      2 C2          4.4001   -1.3909   -4.1456 C.ar      1 <0>        -0.1100
      3 C3          4.3261   -2.7187   -4.5052 C.ar      1 <0>        -0.0545
      4 C4          3.3844   -3.5427   -3.8902 C.ar      1 <0>        -0.1253
      5 C5          2.5196   -3.0079   -2.9082 C.ar      1 <0>        -0.0605
      6 C6          2.6176   -1.6582   -2.5646 C.ar      1 <0>        -0.0976
      7 C7          1.5410   -3.8955   -2.2799 C.2       1 <0>         0.1363
      8 N1          1.4806   -5.1465   -2.6274 N.2       1 <0>        -0.2208
      9 N2          2.3207   -5.7018   -3.5929 N.am      1 <0>        -0.5331
     10 H1          2.2307   -6.6423   -3.8125 H         1 <0>         0.4372
     11 C8          3.2552   -4.9652   -4.2294 C.2       1 <0>         0.5284
     12 O1          3.9778   -5.4710   -5.0695 O.2       1 <0>        -0.5195
     13 C9          0.6031   -3.3594   -1.2291 C.3       1 <0>        -0.0174
     14 C10        -0.2965   -4.4678   -0.7462 C.ar      1 <0>        -0.0888
     15 C11        -1.5039   -4.7030   -1.3818 C.ar      1 <0>        -0.0515
     16 C12        -2.3360   -5.7170   -0.9466 C.ar      1 <0>        -0.1517
     17 C13        -1.9665   -6.5048    0.1286 C.ar      1 <0>         0.1474
     18 C14        -0.7481   -6.2719    0.7738 C.ar      1 <0>        -0.1612
     19 C15         0.0880   -5.2479    0.3234 C.ar      1 <0>        -0.0488
     20 C16        -0.3452   -7.1076    1.9230 C.2       1 <0>         0.5671
     21 O2         -0.3186   -8.3182    1.8145 O.2       1 <0>        -0.5120
     22 N3         -0.0070   -6.5282    3.0919 N.am      1 <0>        -0.5951
     23 C17         0.5000   -7.2907    4.1787 C.3       1 <0>         0.1207
     24 C18        -0.5950   -7.9607    5.0714 C.3       1 <0>        -0.1814
     25 C19        -1.7819   -6.9493    5.1879 C.3       1 <0>         0.0754
     26 N4         -1.3909   -5.5872    5.2939 N.am      1 <0>        -0.6131
     27 C20        -1.3743   -4.7898    4.0406 C.3       1 <0>         0.1131
     28 C21        -0.1419   -5.0634    3.2991 C.3       1 <0>         0.0804
     29 C22        -1.0508   -5.0428    6.4789 C.2       1 <0>         0.7177
     30 O3         -0.6164   -3.9081    6.5244 O.2       1 <0>        -0.5819
     31 N5         -1.1921   -5.7562    7.6136 N.am      1 <0>        -0.6267
     32 C23        -1.3987   -7.2126    7.5720 C.3       1 <0>        -0.0190
     33 C24        -0.3903   -7.8713    8.5201 C.3       1 <0>         0.0449
     34 O4         -0.4806   -7.2538    9.8063 O.3       1 <0>        -0.3788
     35 C25        -0.1477   -5.8635    9.8127 C.3       1 <0>         0.0476
     36 C26        -1.1381   -5.1027    8.9310 C.3       1 <0>         0.0945
     37 F1         -2.7802   -7.4957    0.5542 F         1 <0>        -0.1253
     38 H2          3.6253    0.1737   -2.9100 H         1 <0>         0.1370
     39 H3          5.1280   -0.7489   -4.6193 H         1 <0>         0.1376
     40 H4          4.9911   -3.1177   -5.2569 H         1 <0>         0.1435
     41 H5          1.9611   -1.2397   -1.8161 H         1 <0>         0.1423
     42 H6          1.1809   -2.9693   -0.3913 H         1 <0>         0.1097
     43 H7         -0.0024   -2.5601   -1.6563 H         1 <0>         0.1119
     44 H8         -1.7970   -4.0907   -2.2218 H         1 <0>         0.1380
     45 H9         -3.2767   -5.8944   -1.4467 H         1 <0>         0.1442
     46 H10         1.0322   -5.0648    0.8148 H         1 <0>         0.1371
     47 H11         1.1460   -8.0728    3.7797 H         1 <0>         0.0768
     48 H12         1.1045   -6.6364    4.8069 H         1 <0>         0.0743
     49 H13        -0.9391   -8.8843    4.6059 H         1 <0>         0.0938
     50 H14        -0.1891   -8.1718    6.0607 H         1 <0>         0.0959
     51 H15        -2.4161   -7.0588    4.3082 H         1 <0>         0.0787
     52 H16        -2.3710   -7.2086    6.0676 H         1 <0>         0.1001
     53 H17        -2.2349   -5.0587    3.4281 H         1 <0>         0.0806
     54 H18        -1.4210   -3.7286    4.2851 H         1 <0>         0.1056
     55 H19         0.7135   -4.6969    3.8665 H         1 <0>         0.0902
     56 H20        -0.1769   -4.5618    2.3320 H         1 <0>         0.1032
     57 H21        -2.4132   -7.4487    7.8933 H         1 <0>         0.0745
     58 H22        -1.2405   -7.5769    6.5569 H         1 <0>         0.1744
     59 H23        -0.6154   -8.9340    8.6099 H         1 <0>         0.1059
     60 H24         0.6176   -7.7440    8.1251 H         1 <0>         0.0544
     61 H25        -0.1983   -5.4817   10.8324 H         1 <0>         0.1080
     62 H26         0.8611   -5.7289    9.4224 H         1 <0>         0.0561
     63 H27        -0.8074   -4.0706    8.8155 H         1 <0>         0.1029
     64 H28        -2.1259   -5.1228    9.3915 H         1 <0>         0.0738
@<TRIPOS>BOND
     1    1    6 ar
     2    1    2 ar
     3    1   38 1
     4    2    3 ar
     5    2   39 1
     6    3    4 ar
     7    3   40 1
     8    4   11 1
     9    4    5 ar
    10    5    6 ar
    11    5    7 1
    12    6   41 1
    13    7    8 2
    14    7   13 1
    15    8    9 1
    16    9   10 1
    17    9   11 am
    18   11   12 2
    19   13   14 1
    20   13   42 1
    21   13   43 1
    22   14   19 ar
    23   14   15 ar
    24   15   16 ar
    25   15   44 1
    26   16   17 ar
    27   16   45 1
    28   17   18 ar
    29   17   37 1
    30   18   19 ar
    31   18   20 1
    32   19   46 1
    33   20   21 2
    34   20   22 am
    35   22   28 1
    36   22   23 1
    37   23   24 1
    38   23   47 1
    39   23   48 1
    40   24   25 1
    41   24   49 1
    42   24   50 1
    43   25   26 1
    44   25   51 1
    45   25   52 1
    46   26   27 1
    47   26   29 am
    48   27   28 1
    49   27   53 1
    50   27   54 1
    51   28   55 1
    52   28   56 1
    53   29   30 2
    54   29   31 am
    55   31   36 1
    56   31   32 1
    57   32   33 1
    58   32   57 1
    59   32   58 1
    60   33   34 1
    61   33   59 1
    62   33   60 1
    63   34   35 1
    64   35   36 1
    65   35   61 1
    66   35   62 1
    67   36   63 1
    68   36   64 1
@<TRIPOS>MOLECULE
CHEMBL469960
   45    47     0     0     0
SMALL
USER_CHARGES

@<TRIPOS>ATOM
      1 C1         -0.0187    1.5268    0.0104 C.3       1 <0>        -0.1713
      2 C2          0.0021   -0.0041    0.0020 C.3       1 <0>         0.0578
      3 C3         -1.4307   -0.5366   -0.0646 C.3       1 <0>        -0.0911
      4 C4         -2.1236   -0.2325    1.2339 C.2       1 <0>         0.0007
      5 C5         -1.4439   -0.1379    2.3581 C.2       1 <0>        -0.1653
      6 C6          0.0353   -0.3514    2.4503 C.3       1 <0>         0.1035
      7 N1          0.6996   -0.5320    1.1689 N.4       1 <0>        -0.4953
      8 C7          0.2733   -1.6205    3.2945 C.3       1 <0>        -0.1762
      9 C8          0.6669    0.8255    3.2069 C.3       1 <0>        -0.1739
     10 C9         -3.5822   -0.0375    1.2467 C.2       1 <0>         0.2835
     11 N2         -4.3300    0.2487    2.3570 N.pl3     1 <0>        -0.5895
     12 H1         -3.9996    0.3581    3.2624 H         1 <0>         0.4249
     13 C10        -5.6448    0.3527    1.9434 C.ar      1 <0>         0.0537
     14 C11        -6.8382    0.6214    2.5969 C.ar      1 <0>        -0.0844
     15 C12        -8.0247    0.6592    1.8898 C.ar      1 <0>        -0.0955
     16 C13        -8.0409    0.4308    0.5264 C.ar      1 <0>        -0.0810
     17 C14        -6.8577    0.1590   -0.1560 C.ar      1 <0>        -0.0825
     18 C15        -5.6388    0.1180    0.5569 C.ar      1 <0>         0.0973
     19 N3         -4.3645   -0.1061    0.1928 N.2       1 <0>        -0.4300
     20 C16        -6.8771   -0.0846   -1.6090 C.2       1 <0>         0.5591
     21 O1         -5.8408   -0.3215   -2.1998 O.2       1 <0>        -0.5166
     22 N4         -8.0434   -0.0450   -2.2834 N.am      1 <0>        -0.8508
     23 C17         0.7450   -0.4648   -1.2666 C.3       1 <0>        -0.1762
     24 H2          1.0039    1.9041    0.0027 H         1 <0>         0.0838
     25 H3         -0.5459    1.8879   -0.8726 H         1 <0>         0.1073
     26 H4         -0.5289    1.8783    0.9072 H         1 <0>         0.0788
     27 H5         -1.9619   -0.0538   -0.8842 H         1 <0>         0.1390
     28 H6         -1.4126   -1.6141   -0.2256 H         1 <0>         0.1132
     29 H7         -1.9856    0.1078    3.2629 H         1 <0>         0.1449
     30 H8          0.8681   -1.5295    1.0257 H         1 <0>         0.4275
     31 H9         -0.2036   -2.4732    2.8111 H         1 <0>         0.0845
     32 H10         1.3443   -1.8040    3.3807 H         1 <0>         0.0888
     33 H11        -0.1525   -1.4812    4.2881 H         1 <0>         0.1075
     34 H12         0.2418    0.8834    4.2089 H         1 <0>         0.1066
     35 H13         1.7443    0.6758    3.2774 H         1 <0>         0.0884
     36 H14         0.4631    1.7529    2.6716 H         1 <0>         0.0844
     37 H15        -6.8402    0.8014    3.6618 H         1 <0>         0.1350
     38 H16        -8.9490    0.8689    2.4076 H         1 <0>         0.1470
     39 H17        -8.9764    0.4629   -0.0124 H         1 <0>         0.1418
     40 H18        -8.8699    0.1440   -1.8122 H         1 <0>         0.4010
     41 H19        -8.0561   -0.2053   -3.2400 H         1 <0>         0.4090
     42 H20         1.7629   -0.0751   -1.2532 H         1 <0>         0.0858
     43 H21         0.7732   -1.5540   -1.2957 H         1 <0>         0.0840
     44 H22         0.2244   -0.0911   -2.1483 H         1 <0>         0.1113
     45 H23         1.6251   -0.1007    1.2182 H         1 <0>         0.4294
@<TRIPOS>BOND
     1    1    2 1
     2    1   24 1
     3    1   25 1
     4    1   26 1
     5    2    7 1
     6    2    3 1
     7    2   23 1
     8    3    4 1
     9    3   27 1
    10    3   28 1
    11    4    5 2
    12    4   10 1
    13    5    6 1
    14    5   29 1
    15    6    7 1
    16    6    8 1
    17    6    9 1
    18    7   30 1
    19    7   45 1
    20    8   31 1
    21    8   32 1
    22    8   33 1
    23    9   34 1
    24    9   35 1
    25    9   36 1
    26   10   19 2
    27   10   11 1
    28   11   12 1
    29   11   13 1
    30   13   18 ar
    31   13   14 ar
    32   14   15 ar
    33   14   37 1
    34   15   16 ar
    35   15   38 1
    36   16   17 ar
    37   16   39 1
    38   17   18 ar
    39   17   20 1
    40   18   19 1
    41   20   21 2
    42   20   22 am
    43   22   40 1
    44   22   41 1
    45   23   42 1
    46   23   43 1
    47   23   44 1
@<TRIPOS>MOLECULE
CHEMBL1086580
   32    34     0     0     0
SMALL
USER_CHARGES

@<TRIPOS>ATOM
      1 C1         -0.0169    1.3921    0.0097 C.ar      1 <0>        -0.0517
      2 C2          1.1701    2.0948    0.0021 C.ar      1 <0>        -0.0725
      3 C3          2.3776    1.4193   -0.0135 C.ar      1 <0>        -0.1545
      4 C4          2.4036    0.0359   -0.0216 C.ar      1 <0>        -0.0689
      5 C5          1.2241   -0.6793   -0.0137 C.ar      1 <0>        -0.0924
      6 C6          0.0021   -0.0041    0.0020 C.ar      1 <0>        -0.0434
      7 C7         -1.2652   -0.7634    0.0105 C.2       1 <0>         0.4417
      8 N1         -2.4049   -0.1208    0.0253 N.2       1 <0>        -0.5274
      9 C8         -3.6024   -0.7442    0.0253 C.2       1 <0>         0.1918
     10 C9         -3.6288   -2.0925   -0.0144 C.2       1 <0>        -0.2395
     11 C10        -2.3973   -2.8021   -0.0061 C.2       1 <0>         0.5321
     12 N2         -1.2350   -2.1263   -0.0028 N.am      1 <0>        -0.6311
     13 O1         -2.3949   -4.0220   -0.0067 O.2       1 <0>        -0.5229
     14 C11        -4.8635   -2.9541   -0.0949 C.3       1 <0>        -0.0188
     15 S1         -6.3199   -2.0147    0.4422 S.3       1 <0>        -0.2412
     16 C12        -6.0737   -0.4293   -0.4200 C.3       1 <0>        -0.0844
     17 C13        -4.7814    0.1829    0.1014 C.3       1 <0>        -0.0744
     18 C14         3.6703    2.1939   -0.0222 C.3       1 <0>         0.5068
     19 F1          4.0834    2.4265    1.2941 F         1 <0>        -0.1719
     20 F2          4.6508    1.4572   -0.6954 F         1 <0>        -0.1734
     21 F3          3.4767    3.4169   -0.6732 F         1 <0>        -0.1726
     22 H1         -0.9586    1.9205    0.0260 H         1 <0>         0.1584
     23 H2          1.1569    3.1747    0.0081 H         1 <0>         0.1496
     24 H3          3.3496   -0.4851   -0.0345 H         1 <0>         0.1487
     25 H4          1.2458   -1.7591   -0.0205 H         1 <0>         0.1382
     26 H5         -0.3890   -2.6007   -0.0063 H         1 <0>         0.4201
     27 H6         -5.0064   -3.2850   -1.1236 H         1 <0>         0.1010
     28 H7         -4.7384   -3.8253    0.5482 H         1 <0>         0.1248
     29 H8         -5.9949   -0.6006   -1.4936 H         1 <0>         0.0916
     30 H9         -6.9096    0.2386   -0.2118 H         1 <0>         0.1230
     31 H10        -4.9287    0.4749    1.1411 H         1 <0>         0.1073
     32 H11        -4.5597    1.0773   -0.4808 H         1 <0>         0.1059
@<TRIPOS>BOND
     1    1    6 ar
     2    1    2 ar
     3    1   22 1
     4    2    3 ar
     5    2   23 1
     6    3    4 ar
     7    3   18 1
     8    4    5 ar
     9    4   24 1
    10    5    6 ar
    11    5   25 1
    12    6    7 1
    13    7    8 2
    14    7   12 1
    15    8    9 1
    16    9   10 2
    17    9   17 1
    18   10   11 1
    19   10   14 1
    20   11   13 2
    21   11   12 am
    22   12   26 1
    23   14   15 1
    24   14   27 1
    25   14   28 1
    26   15   16 1
    27   16   17 1
    28   16   29 1
    29   16   30 1
    30   17   31 1
    31   17   32 1
    32   18   19 1
    33   18   20 1
    34   18   21 1
@<TRIPOS>MOLECULE
CHEMBL81831
   50    53     0     0     0
SMALL
USER_CHARGES

@<TRIPOS>ATOM
      1 C1         -0.0178    1.4648    0.0101 C.3       1 <0>        -0.0457
      2 N1          0.0021   -0.0041    0.0020 N.4       1 <0>        -0.3885
      3 C2         -1.3761   -0.5122    0.0107 C.3       1 <0>        -0.0020
      4 C3         -1.3560   -2.0421   -0.0167 C.3       1 <0>         0.0247
      5 N2         -0.6244   -2.5407    1.1564 N.3       1 <0>        -0.5347
      6 C4          0.7499   -2.0201    1.1745 C.3       1 <0>         0.0176
      7 C5          0.7125   -0.4904    1.1921 C.3       1 <0>        -0.0022
      8 C6         -0.6316   -4.0091    1.1963 C.3       1 <0>         0.0956
      9 C7         -0.0938   -4.4782    2.5236 C.ar      1 <0>        -0.0808
     10 C8          1.2625   -4.7050    2.6759 C.ar      1 <0>        -0.1164
     11 C9          1.7613   -5.1344    3.8884 C.ar      1 <0>        -0.0648
     12 C10         0.8946   -5.3397    4.9627 C.ar      1 <0>        -0.0149
     13 C11        -0.4724   -5.1086    4.8026 C.ar      1 <0>        -0.1000
     14 C12        -0.9578   -4.6747    3.5863 C.ar      1 <0>        -0.0918
     15 C13         1.4222   -5.8004    6.2650 C.2       1 <0>         0.3150
     16 N3          0.6679   -6.0387    7.3801 N.pl3     1 <0>        -0.5920
     17 H1         -0.2937   -5.9377    7.4583 H         1 <0>         0.4251
     18 C14         1.5344   -6.4511    8.3747 C.ar      1 <0>         0.0437
     19 C15         1.3670   -6.8290    9.6987 C.ar      1 <0>        -0.0805
     20 C16         2.4592   -7.2001   10.4590 C.ar      1 <0>        -0.1065
     21 C17         3.7302   -7.2005    9.9146 C.ar      1 <0>        -0.0831
     22 C18         3.9277   -6.8261    8.5879 C.ar      1 <0>        -0.0887
     23 C19         2.8182   -6.4450    7.8015 C.ar      1 <0>         0.1028
     24 N4          2.6848   -6.0479    6.5237 N.2       1 <0>        -0.4483
     25 C20         5.2831   -6.8267    8.0096 C.2       1 <0>         0.5590
     26 O1          5.4498   -6.4989    6.8504 O.2       1 <0>        -0.5153
     27 N5          6.3380   -7.1906    8.7654 N.am      1 <0>        -0.8533
     28 H2          1.0047    1.8421    0.0024 H         1 <0>         0.1243
     29 H3         -0.5450    1.8259   -0.8730 H         1 <0>         0.1242
     30 H4         -0.5280    1.8163    0.9069 H         1 <0>         0.1228
     31 H5         -1.8832   -0.1716    0.9134 H         1 <0>         0.1374
     32 H6         -1.9060   -0.1400   -0.8661 H         1 <0>         0.1361
     33 H7         -2.3783   -2.4196    0.0047 H         1 <0>         0.1244
     34 H8         -0.8610   -2.3831   -0.9260 H         1 <0>         0.0619
     35 H9          1.2641   -2.3816    2.0650 H         1 <0>         0.1277
     36 H10         1.2796   -2.3607    0.2848 H         1 <0>         0.0624
     37 H11         1.7310   -0.1020    1.1912 H         1 <0>         0.1362
     38 H12         0.1947   -0.1499    2.0888 H         1 <0>         0.1373
     39 H13        -1.6519   -4.3710    1.0694 H         1 <0>         0.0992
     40 H14        -0.0057   -4.3975    0.3929 H         1 <0>         0.0593
     41 H15         1.9322   -4.5458    1.8437 H         1 <0>         0.1276
     42 H16         2.8202   -5.3118    4.0057 H         1 <0>         0.1460
     43 H17        -1.1484   -5.2655    5.6302 H         1 <0>         0.1245
     44 H18        -2.0149   -4.4916    3.4622 H         1 <0>         0.1317
     45 H19         0.3798   -6.8329   10.1367 H         1 <0>         0.1322
     46 H20         2.3190   -7.4924   11.4891 H         1 <0>         0.1431
     47 H21         4.5744   -7.4924   10.5216 H         1 <0>         0.1382
     48 H22         6.2051   -7.4521    9.6900 H         1 <0>         0.3999
     49 H23         7.2302   -7.1910    8.3848 H         1 <0>         0.4067
     50 H24         0.4748   -0.3293   -0.8280 H         1 <0>         0.4226
@<TRIPOS>BOND
     1    1    2 1
     2    1   28 1
     3    1   29 1
     4    1   30 1
     5    2    7 1
     6    2    3 1
     7    2   50 1
     8    3    4 1
     9    3   31 1
    10    3   32 1
    11    4    5 1
    12    4   33 1
    13    4   34 1
    14    5    6 1
    15    5    8 1
    16    6    7 1
    17    6   35 1
    18    6   36 1
    19    7   37 1
    20    7   38 1
    21    8    9 1
    22    8   39 1
    23    8   40 1
    24    9   14 ar
    25    9   10 ar
    26   10   11 ar
    27   10   41 1
    28   11   12 ar
    29   11   42 1
    30   12   13 ar
    31   12   15 1
    32   13   14 ar
    33   13   43 1
    34   14   44 1
    35   15   24 2
    36   15   16 1
    37   16   17 1
    38   16   18 1
    39   18   23 ar
    40   18   19 ar
    41   19   20 ar
    42   19   45 1
    43   20   21 ar
    44   20   46 1
    45   21   22 ar
    46   21   47 1
    47   22   23 ar
    48   22   25 1
    49   23   24 1
    50   25   26 2
    51   25   27 am
    52   27   48 1
    53   27   49 1
@<TRIPOS>MOLECULE
CHEMBL81831__1
   50    53     0     0     0
SMALL
USER_CHARGES

@<TRIPOS>ATOM
      1 C1         -0.0178    1.4648    0.0101 C.3       1 <0>         0.0194
      2 N1          0.0021   -0.0041    0.0020 N.3       1 <0>        -0.5431
      3 C2         -1.3607   -0.5489   -0.0764 C.3       1 <0>         0.0243
      4 C3         -1.2932   -2.0762   -0.1426 C.3       1 <0>        -0.0024
      5 N2         -0.6107   -2.5886    1.0529 N.4       1 <0>        -0.3854
      6 C4          0.7570   -2.0553    1.1043 C.3       1 <0>        -0.0084
      7 C5          0.7065   -0.5278    1.1808 C.3       1 <0>         0.0260
      8 C6         -0.5621   -4.0557    0.9977 C.3       1 <0>         0.0445
      9 C7          0.0271   -4.5874    2.2788 C.ar      1 <0>        -0.1519
     10 C8          1.3944   -4.7705    2.3842 C.ar      1 <0>        -0.0920
     11 C9          1.9401   -5.2569    3.5542 C.ar      1 <0>        -0.0662
     12 C10         1.1097   -5.5639    4.6331 C.ar      1 <0>         0.0180
     13 C11        -0.2687   -5.3765    4.5204 C.ar      1 <0>        -0.1021
     14 C12        -0.8012   -4.8849    3.3464 C.ar      1 <0>        -0.0885
     15 C13         1.6877   -6.0861    5.8900 C.2       1 <0>         0.2964
     16 N3          0.9719   -6.4243    7.0047 N.pl3     1 <0>        -0.5896
     17 H1          0.0096   -6.3660    7.1118 H         1 <0>         0.4255
     18 C14         1.8786   -6.8654    7.9498 C.ar      1 <0>         0.0501
     19 C15         1.7597   -7.3334    9.2501 C.ar      1 <0>        -0.0828
     20 C16         2.8844   -7.7095    9.9589 C.ar      1 <0>        -0.0998
     21 C17         4.1400   -7.6257    9.3860 C.ar      1 <0>        -0.0822
     22 C18         4.2890   -7.1599    8.0821 C.ar      1 <0>        -0.0842
     23 C19         3.1461   -6.7728    7.3483 C.ar      1 <0>         0.0991
     24 N4          2.9649   -6.3003    6.1024 N.2       1 <0>        -0.4369
     25 C20         5.6281   -7.0709    7.4734 C.2       1 <0>         0.5588
     26 O1          5.7523   -6.6634    6.3344 O.2       1 <0>        -0.5153
     27 N5          6.7150   -7.4410    8.1791 N.am      1 <0>        -0.8518
     28 H2          1.0047    1.8421    0.0024 H         1 <0>         0.0845
     29 H3         -0.5450    1.8259   -0.8730 H         1 <0>         0.0839
     30 H4         -0.5280    1.8163    0.9069 H         1 <0>         0.0391
     31 H5         -1.9242   -0.2477    0.8067 H         1 <0>         0.0597
     32 H6         -1.8539   -0.1676   -0.9705 H         1 <0>         0.1241
     33 H7         -2.3035   -2.4830   -0.1865 H         1 <0>         0.1364
     34 H8         -0.7413   -2.3773   -1.0330 H         1 <0>         0.1391
     35 H9          1.2666   -2.4465    1.9848 H         1 <0>         0.1364
     36 H10         1.2983   -2.3564    0.2075 H         1 <0>         0.1390
     37 H11         1.7215   -0.1310    1.2040 H         1 <0>         0.1238
     38 H12         0.1771   -0.2262    2.0846 H         1 <0>         0.0594
     39 H13        -1.5711   -4.4482    0.8715 H         1 <0>         0.1393
     40 H14         0.0569   -4.3674    0.1563 H         1 <0>         0.1397
     41 H15         2.0359   -4.5325    1.5486 H         1 <0>         0.1412
     42 H16         3.0075   -5.4001    3.6350 H         1 <0>         0.1558
     43 H17        -0.9167   -5.6121    5.3516 H         1 <0>         0.1331
     44 H18        -1.8672   -4.7355    3.2593 H         1 <0>         0.1382
     45 H19         0.7851   -7.4037    9.7100 H         1 <0>         0.1340
     46 H20         2.7819   -8.0724   10.9709 H         1 <0>         0.1454
     47 H21         5.0099   -7.9228    9.9529 H         1 <0>         0.1404
     48 H22         6.6159   -7.7660    9.0876 H         1 <0>         0.4004
     49 H23         7.5965   -7.3824    7.7784 H         1 <0>         0.4080
     50 H24        -1.1152   -2.2999    1.8777 H         1 <0>         0.4195
@<TRIPOS>BOND
     1    1    2 1
     2    1   28 1
     3    1   29 1
     4    1   30 1
     5    2    7 1
     6    2    3 1
     7    3    4 1
     8    3   31 1
     9    3   32 1
    10    4    5 1
    11    4   33 1
    12    4   34 1
    13    5    6 1
    14    5    8 1
    15    5   50 1
    16    6    7 1
    17    6   35 1
    18    6   36 1
    19    7   37 1
    20    7   38 1
    21    8    9 1
    22    8   39 1
    23    8   40 1
    24    9   14 ar
    25    9   10 ar
    26   10   11 ar
    27   10   41 1
    28   11   12 ar
    29   11   42 1
    30   12   13 ar
    31   12   15 1
    32   13   14 ar
    33   13   43 1
    34   14   44 1
    35   15   24 2
    36   15   16 1
    37   16   17 1
    38   16   18 1
    39   18   23 ar
    40   18   19 ar
    41   19   20 ar
    42   19   45 1
    43   20   21 ar
    44   20   46 1
    45   21   22 ar
    46   21   47 1
    47   22   23 ar
    48   22   25 1
    49   23   24 1
    50   25   26 2
    51   25   27 am
    52   27   48 1
    53   27   49 1
@<TRIPOS>MOLECULE
CHEMBL595018
   40    43     0     0     0
SMALL
USER_CHARGES

@<TRIPOS>ATOM
      1 C1         -0.0166    1.3760    0.0096 C.ar      1 <0>        -0.1209
      2 C2          1.1662    2.0868    0.0021 C.ar      1 <0>        -0.0936
      3 C3          2.3967    1.4340   -0.0291 C.ar      1 <0>        -0.0755
      4 C4          2.4201    0.0605   -0.0499 C.ar      1 <0>        -0.0665
      5 C5          1.2266   -0.6678   -0.0130 C.ar      1 <0>        -0.1260
      6 C6          0.0021   -0.0041    0.0020 C.ar      1 <0>        -0.0566
      7 C7          1.2842   -2.1436    0.0500 C.2       1 <0>         0.5598
      8 O1          0.2876   -2.8040   -0.1694 O.2       1 <0>        -0.5334
      9 N1          2.4471   -2.7525    0.3513 N.am      1 <0>        -0.7270
     10 C8          3.6229   -1.9689    0.7327 C.3       1 <0>         0.1236
     11 C9          3.7168   -0.7072   -0.1204 C.3       1 <0>         0.1705
     12 N2          4.7906    0.1591    0.3818 N.am      1 <0>        -0.6063
     13 C10         4.9172    1.4937   -0.2120 C.3       1 <0>         0.1066
     14 C11         3.6334    2.2836   -0.0343 C.3       1 <0>        -0.0977
     15 C12         5.6281   -0.2566    1.3525 C.2       1 <0>         0.5222
     16 O2          5.5025   -1.3652    1.8280 O.2       1 <0>        -0.5207
     17 C13         6.7206    0.6560    1.8469 C.3       1 <0>        -0.0952
     18 C14         7.5096   -0.0427    2.9242 C.ar      1 <0>        -0.1246
     19 C15         7.1318    0.0667    4.2539 C.ar      1 <0>        -0.0598
     20 C16         7.8873   -0.5932    5.2108 C.ar      1 <0>        -0.1703
     21 C17         8.9842   -1.3329    4.8105 C.ar      1 <0>         0.1011
     22 N3          9.3143   -1.4142    3.5366 N.ar      1 <0>        -0.4833
     23 C18         8.6153   -0.8049    2.5988 C.ar      1 <0>         0.1154
     24 H1         -0.9601    1.9013    0.0260 H         1 <0>         0.1341
     25 H2          1.1376    3.1663    0.0204 H         1 <0>         0.1299
     26 H3         -0.9221   -0.5629    0.0080 H         1 <0>         0.1401
     27 H4          2.5058   -3.7200    0.3155 H         1 <0>         0.4097
     28 H5          3.5450   -1.6893    1.7833 H         1 <0>         0.0857
     29 H6          4.5201   -2.5705    0.5874 H         1 <0>         0.1099
     30 H7          3.9215   -0.9818   -1.1552 H         1 <0>         0.0970
     31 H8          5.7361    2.0259    0.2720 H         1 <0>         0.0980
     32 H9          5.1334    1.3944   -1.2758 H         1 <0>         0.0800
     33 H10         3.5550    3.0075   -0.8454 H         1 <0>         0.0942
     34 H11         3.6865    2.8268    0.9092 H         1 <0>         0.0847
     35 H12         7.3827    0.9116    1.0196 H         1 <0>         0.1107
     36 H13         6.2782    1.5658    2.2527 H         1 <0>         0.1079
     37 H14         6.2698    0.6522    4.5374 H         1 <0>         0.1316
     38 H15         7.6224   -0.5298    6.2559 H         1 <0>         0.1363
     39 H16         9.5780   -1.8499    5.5498 H         1 <0>         0.1566
     40 H17         8.9132   -0.8990    1.5649 H         1 <0>         0.1521
@<TRIPOS>BOND
     1    1    6 ar
     2    1    2 ar
     3    1   24 1
     4    2    3 ar
     5    2   25 1
     6    3   14 1
     7    3    4 ar
     8    4   11 1
     9    4    5 ar
    10    5    6 ar
    11    5    7 1
    12    6   26 1
    13    7    8 2
    14    7    9 am
    15    9   10 1
    16    9   27 1
    17   10   11 1
    18   10   28 1
    19   10   29 1
    20   11   12 1
    21   11   30 1
    22   12   13 1
    23   12   15 am
    24   13   14 1
    25   13   31 1
    26   13   32 1
    27   14   33 1
    28   14   34 1
    29   15   16 2
    30   15   17 1
    31   17   18 1
    32   17   35 1
    33   17   36 1
    34   18   23 ar
    35   18   19 ar
    36   19   20 ar
    37   19   37 1
    38   20   21 ar
    39   20   38 1
    40   21   22 ar
    41   21   39 1
    42   22   23 ar
    43   23   40 1
@<TRIPOS>MOLECULE
CHEMBL595018__1
   40    43     0     0     0
SMALL
USER_CHARGES

@<TRIPOS>ATOM
      1 C1         -0.0166    1.3760    0.0096 C.ar      1 <0>        -0.1207
      2 C2          1.1662    2.0868    0.0021 C.ar      1 <0>        -0.0934
      3 C3          2.3970    1.4338    0.0028 C.ar      1 <0>        -0.0754
      4 C4          2.4207    0.0601    0.0084 C.ar      1 <0>        -0.0667
      5 C5          1.2266   -0.6678   -0.0135 C.ar      1 <0>        -0.1260
      6 C6          0.0021   -0.0041    0.0020 C.ar      1 <0>        -0.0565
      7 C7          1.2829   -2.1428   -0.0935 C.2       1 <0>         0.5599
      8 O1          0.2903   -2.8056    0.1369 O.2       1 <0>        -0.5334
      9 N1          2.4397   -2.7483   -0.4236 N.am      1 <0>        -0.7271
     10 C8          3.6080   -1.9605   -0.8189 C.3       1 <0>         0.1235
     11 C9          3.7184   -0.7081    0.0458 C.3       1 <0>         0.1707
     12 N2          4.7825    0.1637   -0.4675 N.am      1 <0>        -0.6063
     13 C10         4.9205    1.4919    0.1382 C.3       1 <0>         0.1068
     14 C11         3.6336    2.2834   -0.0064 C.3       1 <0>        -0.0979
     15 C12         5.6018   -0.2418   -1.4578 C.2       1 <0>         0.5221
     16 O2          5.4675   -1.3456   -1.9422 O.2       1 <0>        -0.5208
     17 C13         6.6848    0.6762   -1.9632 C.3       1 <0>        -0.0951
     18 C14         7.4536   -0.0111   -3.0621 C.ar      1 <0>        -0.1246
     19 C15         8.5659   -0.7836   -2.7636 C.ar      1 <0>        -0.0597
     20 C16         9.2422   -1.3972   -3.8065 C.ar      1 <0>        -0.1705
     21 C17         8.7887   -1.2199   -5.1002 C.ar      1 <0>         0.1010
     22 N3          7.7272   -0.4776   -5.3470 N.ar      1 <0>        -0.4833
     23 C18         7.0558    0.1158   -4.3793 C.ar      1 <0>         0.1154
     24 H1         -0.9601    1.9013    0.0260 H         1 <0>         0.1342
     25 H2          1.1374    3.1664   -0.0047 H         1 <0>         0.1300
     26 H3         -0.9221   -0.5629    0.0077 H         1 <0>         0.1401
     27 H4          2.4992   -3.7162   -0.3987 H         1 <0>         0.4096
     28 H5          4.5079   -2.5635   -0.6972 H         1 <0>         0.1094
     29 H6          3.5101   -1.6696   -1.8647 H         1 <0>         0.0863
     30 H7          3.9428   -0.9938    1.0735 H         1 <0>         0.0965
     31 H8          5.1571    1.3811    1.1964 H         1 <0>         0.0794
     32 H9          5.7301    2.0293   -0.3557 H         1 <0>         0.0980
     33 H10         3.6688    2.8368   -0.9449 H         1 <0>         0.0854
     34 H11         3.5708    2.9985    0.8138 H         1 <0>         0.0941
     35 H12         6.2347    1.5899   -2.3513 H         1 <0>         0.1095
     36 H13         7.3621    0.9236   -1.1458 H         1 <0>         0.1090
     37 H14         8.8975   -0.9041   -1.7428 H         1 <0>         0.1323
     38 H15        10.1127   -2.0058   -3.6108 H         1 <0>         0.1365
     39 H16         9.3101   -1.6945   -5.9183 H         1 <0>         0.1566
     40 H17         6.1877    0.7118   -4.6196 H         1 <0>         0.1513
@<TRIPOS>BOND
     1    1    6 ar
     2    1    2 ar
     3    1   24 1
     4    2    3 ar
     5    2   25 1
     6    3   14 1
     7    3    4 ar
     8    4   11 1
     9    4    5 ar
    10    5    6 ar
    11    5    7 1
    12    6   26 1
    13    7    8 2
    14    7    9 am
    15    9   10 1
    16    9   27 1
    17   10   11 1
    18   10   28 1
    19   10   29 1
    20   11   12 1
    21   11   30 1
    22   12   13 1
    23   12   15 am
    24   13   14 1
    25   13   31 1
    26   13   32 1
    27   14   33 1
    28   14   34 1
    29   15   16 2
    30   15   17 1
    31   17   18 1
    32   17   35 1
    33   17   36 1
    34   18   23 ar
    35   18   19 ar
    36   19   20 ar
    37   19   37 1
    38   20   21 ar
    39   20   38 1
    40   21   22 ar
    41   21   39 1
    42   22   23 ar
    43   23   40 1
@<TRIPOS>MOLECULE
CHEMBL595019
   40    43     0     0     0
SMALL
USER_CHARGES

@<TRIPOS>ATOM
      1 C1         -0.0184    1.5028    0.0103 C.3       1 <0>        -0.0807
      2 C2          0.0021   -0.0041    0.0020 C.2       1 <0>         0.0647
      3 C3          0.0059   -0.7076   -1.1591 C.2       1 <0>        -0.2302
      4 S1          0.0324   -2.3789   -0.5312 S.3       1 <0>         0.1202
      5 C4          0.0357   -2.0088    1.1107 C.2       1 <0>         0.0634
      6 N1          0.0226   -0.6992    1.1217 N.2       1 <0>        -0.5031
      7 C5          0.0549   -2.9548    2.2837 C.3       1 <0>        -0.0504
      8 C6         -1.3594   -3.2903    2.6816 C.2       1 <0>         0.5278
      9 O1         -2.2911   -2.8088    2.0726 O.2       1 <0>        -0.5161
     10 N2         -1.5888   -4.1256    3.7141 N.am      1 <0>        -0.6045
     11 C7         -0.4834   -4.7188    4.4734 C.3       1 <0>         0.1054
     12 C8         -0.5544   -6.2342    4.4311 C.3       1 <0>        -0.0979
     13 C9         -1.9514   -6.7732    4.3385 C.ar      1 <0>        -0.0754
     14 C10        -2.1191   -8.1529    4.4436 C.ar      1 <0>        -0.0927
     15 C11        -3.3723   -8.7248    4.3677 C.ar      1 <0>        -0.1207
     16 C12        -4.4868   -7.9334    4.1732 C.ar      1 <0>        -0.0558
     17 C13        -4.3313   -6.5555    4.0565 C.ar      1 <0>        -0.1245
     18 C14        -3.0599   -5.9805    4.1678 C.ar      1 <0>        -0.0662
     19 C15        -2.9550   -4.4717    4.1256 C.3       1 <0>         0.1720
     20 C16        -3.9611   -3.9047    3.1283 C.3       1 <0>         0.1231
     21 N3         -5.3069   -4.3905    3.4374 N.am      1 <0>        -0.7307
     22 C17        -5.4974   -5.6775    3.8230 C.2       1 <0>         0.5601
     23 O2         -6.6243   -6.1022    3.9880 O.2       1 <0>        -0.5308
     24 H1          1.0042    1.8801    0.0026 H         1 <0>         0.0752
     25 H2         -0.5455    1.8639   -0.8728 H         1 <0>         0.0753
     26 H3         -0.5286    1.8543    0.9071 H         1 <0>         0.0748
     27 H4         -0.0043   -0.3543   -2.1797 H         1 <0>         0.1967
     28 H5          0.5804   -3.8682    2.0052 H         1 <0>         0.1222
     29 H6          0.5661   -2.4828    3.1227 H         1 <0>         0.1299
     30 H7          0.4634   -4.3917    4.0436 H         1 <0>         0.0976
     31 H8         -0.5405   -4.3857    5.5097 H         1 <0>         0.0819
     32 H9          0.0118   -6.5850    3.5682 H         1 <0>         0.0860
     33 H10        -0.0880   -6.6296    5.3334 H         1 <0>         0.0950
     34 H11        -1.2545   -8.7840    4.5870 H         1 <0>         0.1304
     35 H12        -3.4819   -9.7952    4.4612 H         1 <0>         0.1344
     36 H13        -5.4686   -8.3790    4.1118 H         1 <0>         0.1400
     37 H14        -3.1515   -4.0623    5.1165 H         1 <0>         0.0987
     38 H15        -3.9488   -2.8161    3.1822 H         1 <0>         0.1092
     39 H16        -3.6867   -4.2175    2.1209 H         1 <0>         0.0860
     40 H17        -6.0647   -3.7903    3.3570 H         1 <0>         0.4100
@<TRIPOS>BOND
     1    1    2 1
     2    1   24 1
     3    1   25 1
     4    1   26 1
     5    2    6 1
     6    2    3 2
     7    3    4 1
     8    3   27 1
     9    4    5 1
    10    5    6 2
    11    5    7 1
    12    7    8 1
    13    7   28 1
    14    7   29 1
    15    8    9 2
    16    8   10 am
    17   10   19 1
    18   10   11 1
    19   11   12 1
    20   11   30 1
    21   11   31 1
    22   12   13 1
    23   12   32 1
    24   12   33 1
    25   13   18 ar
    26   13   14 ar
    27   14   15 ar
    28   14   34 1
    29   15   16 ar
    30   15   35 1
    31   16   17 ar
    32   16   36 1
    33   17   22 1
    34   17   18 ar
    35   18   19 1
    36   19   20 1
    37   19   37 1
    38   20   21 1
    39   20   38 1
    40   20   39 1
    41   21   22 am
    42   21   40 1
    43   22   23 2
@<TRIPOS>MOLECULE
CHEMBL595019__1
   40    43     0     0     0
SMALL
USER_CHARGES

@<TRIPOS>ATOM
      1 C1         -0.0184    1.5028    0.0103 C.3       1 <0>        -0.0810
      2 C2          0.0021   -0.0041    0.0020 C.2       1 <0>         0.0649
      3 C3          0.0059   -0.7076   -1.1591 C.2       1 <0>        -0.2302
      4 S1          0.0324   -2.3789   -0.5312 S.3       1 <0>         0.1206
      5 C4          0.0357   -2.0088    1.1107 C.2       1 <0>         0.0633
      6 N1          0.0226   -0.6992    1.1217 N.2       1 <0>        -0.5032
      7 C5          0.0549   -2.9548    2.2837 C.3       1 <0>        -0.0504
      8 C6         -1.3594   -3.2903    2.6816 C.2       1 <0>         0.5279
      9 O1         -2.2911   -2.8088    2.0726 O.2       1 <0>        -0.5162
     10 N2         -1.5888   -4.1256    3.7141 N.am      1 <0>        -0.6040
     11 C7         -0.4834   -4.7188    4.4734 C.3       1 <0>         0.1056
     12 C8         -0.5854   -4.3561    5.9435 C.3       1 <0>        -0.0984
     13 C9         -1.9943   -4.1789    6.4277 C.ar      1 <0>        -0.0748
     14 C10        -2.1879   -3.9911    7.7951 C.ar      1 <0>        -0.0935
     15 C11        -3.4534   -3.8204    8.3175 C.ar      1 <0>        -0.1204
     16 C12        -4.5548   -3.8212    7.4848 C.ar      1 <0>        -0.0562
     17 C13        -4.3736   -3.9976    6.1165 C.ar      1 <0>        -0.1264
     18 C14        -3.0893   -4.2032    5.5991 C.ar      1 <0>        -0.0683
     19 C15        -2.9550   -4.4717    4.1256 C.3       1 <0>         0.1719
     20 C16        -3.9640   -3.6295    3.3503 C.3       1 <0>         0.1220
     21 N3         -5.3125   -3.8456    3.8769 N.am      1 <0>        -0.7225
     22 C17        -5.5255   -3.9799    5.1902 C.2       1 <0>         0.5600
     23 O2         -6.6578   -4.0732    5.6220 O.2       1 <0>        -0.5360
     24 H1          1.0042    1.8801    0.0026 H         1 <0>         0.0752
     25 H2         -0.5455    1.8639   -0.8728 H         1 <0>         0.0754
     26 H3         -0.5286    1.8543    0.9071 H         1 <0>         0.0747
     27 H4         -0.0043   -0.3543   -2.1797 H         1 <0>         0.1968
     28 H5          0.5804   -3.8682    2.0052 H         1 <0>         0.1235
     29 H6          0.5661   -2.4828    3.1227 H         1 <0>         0.1289
     30 H7         -0.5170   -5.8032    4.3681 H         1 <0>         0.0823
     31 H8          0.4627   -4.3497    4.0775 H         1 <0>         0.0975
     32 H9         -0.1126   -5.1440    6.5298 H         1 <0>         0.0950
     33 H10        -0.0405   -3.4272    6.1113 H         1 <0>         0.0861
     34 H11        -1.3340   -3.9794    8.4562 H         1 <0>         0.1301
     35 H12        -3.5830   -3.6859    9.3812 H         1 <0>         0.1341
     36 H13        -5.5463   -3.6868    7.8913 H         1 <0>         0.1398
     37 H14        -3.1363   -5.5291    3.9332 H         1 <0>         0.0986
     38 H15        -3.7036   -2.5753    3.4456 H         1 <0>         0.0881
     39 H16        -3.9375   -3.9122    2.2979 H         1 <0>         0.1099
     40 H17        -6.0636   -3.9027    3.2657 H         1 <0>         0.4094
@<TRIPOS>BOND
     1    1    2 1
     2    1   24 1
     3    1   25 1
     4    1   26 1
     5    2    6 1
     6    2    3 2
     7    3    4 1
     8    3   27 1
     9    4    5 1
    10    5    6 2
    11    5    7 1
    12    7    8 1
    13    7   28 1
    14    7   29 1
    15    8    9 2
    16    8   10 am
    17   10   19 1
    18   10   11 1
    19   11   12 1
    20   11   30 1
    21   11   31 1
    22   12   13 1
    23   12   32 1
    24   12   33 1
    25   13   18 ar
    26   13   14 ar
    27   14   15 ar
    28   14   34 1
    29   15   16 ar
    30   15   35 1
    31   16   17 ar
    32   16   36 1
    33   17   22 1
    34   17   18 ar
    35   18   19 1
    36   19   20 1
    37   19   37 1
    38   20   21 1
    39   20   38 1
    40   20   39 1
    41   21   22 am
    42   21   40 1
    43   22   23 2
@<TRIPOS>MOLECULE
CHEMBL595464
   49    52     0     0     0
SMALL
USER_CHARGES

@<TRIPOS>ATOM
      1 C1         -0.0178    1.4648    0.0101 C.3       1 <0>        -0.0458
      2 N1          0.0021   -0.0041    0.0020 N.4       1 <0>        -0.3892
      3 C2         -1.3761   -0.5122    0.0107 C.3       1 <0>        -0.0013
      4 C3         -1.3560   -2.0421   -0.0167 C.3       1 <0>         0.0262
      5 N2         -0.6244   -2.5407    1.1564 N.3       1 <0>        -0.5230
      6 C4          0.7499   -2.0201    1.1745 C.3       1 <0>         0.0190
      7 C5          0.7125   -0.4904    1.1921 C.3       1 <0>         0.0001
      8 C6         -0.6316   -4.0091    1.1963 C.3       1 <0>         0.0364
      9 C7         -0.0938   -4.4782    2.5236 C.2       1 <0>         0.5217
     10 O1          0.2607   -3.6689    3.3545 O.2       1 <0>        -0.5185
     11 N3         -0.0067   -5.7970    2.7874 N.am      1 <0>        -0.5999
     12 C8         -0.4215   -6.7996    1.8010 C.3       1 <0>         0.1069
     13 C9         -1.5058   -7.6965    2.3694 C.3       1 <0>        -0.0974
     14 C10        -1.4044   -7.9052    3.8516 C.ar      1 <0>        -0.0783
     15 C11        -2.2685   -8.8312    4.4335 C.ar      1 <0>        -0.0917
     16 C12        -2.2369   -9.0786    5.7904 C.ar      1 <0>        -0.1167
     17 C13        -1.3495   -8.3983    6.6003 C.ar      1 <0>        -0.0530
     18 C14        -0.4886   -7.4639    6.0328 C.ar      1 <0>        -0.1243
     19 C15        -0.5047   -7.2431    4.6505 C.ar      1 <0>        -0.0708
     20 C16         0.5129   -6.2849    4.0710 C.3       1 <0>         0.1712
     21 C17         0.7328   -5.1147    5.0252 C.3       1 <0>         0.1283
     22 N4          1.0848   -5.6087    6.3573 N.am      1 <0>        -0.7340
     23 C18         0.4584   -6.6978    6.8703 C.2       1 <0>         0.5594
     24 O2          0.6861   -7.0486    8.0116 O.2       1 <0>        -0.5228
     25 H1          1.0047    1.8421    0.0024 H         1 <0>         0.1245
     26 H2         -0.5450    1.8259   -0.8730 H         1 <0>         0.1242
     27 H3         -0.5280    1.8163    0.9069 H         1 <0>         0.1235
     28 H4         -1.8832   -0.1716    0.9134 H         1 <0>         0.1389
     29 H5         -1.9060   -0.1400   -0.8661 H         1 <0>         0.1375
     30 H6         -2.3783   -2.4196    0.0047 H         1 <0>         0.1251
     31 H7         -0.8610   -2.3831   -0.9260 H         1 <0>         0.0629
     32 H8          1.2641   -2.3816    2.0650 H         1 <0>         0.1397
     33 H9          1.2796   -2.3607    0.2848 H         1 <0>         0.0573
     34 H10         1.7310   -0.1020    1.1912 H         1 <0>         0.1361
     35 H11         0.1947   -0.1499    2.0888 H         1 <0>         0.1398
     36 H12        -1.6519   -4.3710    1.0694 H         1 <0>         0.1195
     37 H13        -0.0057   -4.3975    0.3929 H         1 <0>         0.0793
     38 H14        -0.8026   -6.2939    0.9138 H         1 <0>         0.0922
     39 H15         0.4393   -7.4083    1.5243 H         1 <0>         0.0832
     40 H16        -2.4763   -7.2534    2.1461 H         1 <0>         0.0847
     41 H17        -1.4482   -8.6670    1.8767 H         1 <0>         0.0964
     42 H18        -2.9736   -9.3636    3.8124 H         1 <0>         0.1315
     43 H19        -2.9082   -9.8071    6.2205 H         1 <0>         0.1371
     44 H20        -1.3240   -8.5891    7.6631 H         1 <0>         0.1423
     45 H21         1.4562   -6.8061    3.9075 H         1 <0>         0.0996
     46 H22         1.5402   -4.4874    4.6475 H         1 <0>         0.1050
     47 H23        -0.1811   -4.5240    5.0889 H         1 <0>         0.0848
     48 H24         1.7628   -5.1488    6.8767 H         1 <0>         0.4107
     49 H25         0.4748   -0.3293   -0.8280 H         1 <0>         0.4216
@<TRIPOS>BOND
     1    1    2 1
     2    1   25 1
     3    1   26 1
     4    1   27 1
     5    2    7 1
     6    2    3 1
     7    2   49 1
     8    3    4 1
     9    3   28 1
    10    3   29 1
    11    4    5 1
    12    4   30 1
    13    4   31 1
    14    5    6 1
    15    5    8 1
    16    6    7 1
    17    6   32 1
    18    6   33 1
    19    7   34 1
    20    7   35 1
    21    8    9 1
    22    8   36 1
    23    8   37 1
    24    9   10 2
    25    9   11 am
    26   11   20 1
    27   11   12 1
    28   12   13 1
    29   12   38 1
    30   12   39 1
    31   13   14 1
    32   13   40 1
    33   13   41 1
    34   14   19 ar
    35   14   15 ar
    36   15   16 ar
    37   15   42 1
    38   16   17 ar
    39   16   43 1
    40   17   18 ar
    41   17   44 1
    42   18   23 1
    43   18   19 ar
    44   19   20 1
    45   20   21 1
    46   20   45 1
    47   21   22 1
    48   21   46 1
    49   21   47 1
    50   22   23 am
    51   22   48 1
    52   23   24 2
@<TRIPOS>MOLECULE
CHEMBL595464__1
   49    52     0     0     0
SMALL
USER_CHARGES

@<TRIPOS>ATOM
      1 C1         -0.0178    1.4648    0.0101 C.3       1 <0>        -0.0458
      2 N1          0.0021   -0.0041    0.0020 N.4       1 <0>        -0.3893
      3 C2         -1.3761   -0.5122    0.0107 C.3       1 <0>        -0.0012
      4 C3         -1.3560   -2.0421   -0.0167 C.3       1 <0>         0.0261
      5 N2         -0.6244   -2.5407    1.1564 N.3       1 <0>        -0.5225
      6 C4          0.7499   -2.0201    1.1745 C.3       1 <0>         0.0188
      7 C5          0.7125   -0.4904    1.1921 C.3       1 <0>         0.0003
      8 C6         -0.6316   -4.0091    1.1963 C.3       1 <0>         0.0363
      9 C7         -0.0938   -4.4782    2.5236 C.2       1 <0>         0.5220
     10 O1          0.2607   -3.6689    3.3545 O.2       1 <0>        -0.5187
     11 N3         -0.0067   -5.7970    2.7874 N.am      1 <0>        -0.5992
     12 C8         -0.4215   -6.7996    1.8010 C.3       1 <0>         0.1062
     13 C9          0.7289   -7.7300    1.4637 C.3       1 <0>        -0.0968
     14 C10         1.6826   -7.9516    2.6005 C.ar      1 <0>        -0.0790
     15 C11         2.6837   -8.9056    2.4264 C.ar      1 <0>        -0.0927
     16 C12         3.5991   -9.1663    3.4252 C.ar      1 <0>        -0.1168
     17 C13         3.5437   -8.4718    4.6172 C.ar      1 <0>        -0.0531
     18 C14         2.5551   -7.5096    4.7992 C.ar      1 <0>        -0.1261
     19 C15         1.6102   -7.2749    3.7934 C.ar      1 <0>        -0.0721
     20 C16         0.5129   -6.2849    4.0710 C.3       1 <0>         0.1703
     21 C17         1.0597   -5.1200    4.8908 C.3       1 <0>         0.1280
     22 N4          1.7323   -5.6192    6.0913 N.am      1 <0>        -0.7255
     23 C18         2.4784   -6.7281    6.0516 C.2       1 <0>         0.5586
     24 O2          3.1004   -7.0849    7.0330 O.2       1 <0>        -0.5278
     25 H1          1.0047    1.8421    0.0024 H         1 <0>         0.1244
     26 H2         -0.5450    1.8259   -0.8730 H         1 <0>         0.1243
     27 H3         -0.5280    1.8163    0.9069 H         1 <0>         0.1236
     28 H4         -1.8832   -0.1716    0.9134 H         1 <0>         0.1391
     29 H5         -1.9060   -0.1400   -0.8661 H         1 <0>         0.1375
     30 H6         -2.3783   -2.4196    0.0047 H         1 <0>         0.1255
     31 H7         -0.8610   -2.3831   -0.9260 H         1 <0>         0.0627
     32 H8          1.2641   -2.3816    2.0650 H         1 <0>         0.1393
     33 H9          1.2796   -2.3607    0.2848 H         1 <0>         0.0569
     34 H10         1.7310   -0.1020    1.1912 H         1 <0>         0.1359
     35 H11         0.1947   -0.1499    2.0888 H         1 <0>         0.1401
     36 H12        -1.6519   -4.3710    1.0694 H         1 <0>         0.1206
     37 H13        -0.0057   -4.3975    0.3929 H         1 <0>         0.0787
     38 H14        -1.2475   -7.3830    2.2079 H         1 <0>         0.0848
     39 H15        -0.7526   -6.2946    0.8935 H         1 <0>         0.0925
     40 H16         0.3196   -8.6936    1.1602 H         1 <0>         0.0969
     41 H17         1.2812   -7.3099    0.6232 H         1 <0>         0.0825
     42 H18         2.7435   -9.4496    1.4953 H         1 <0>         0.1310
     43 H19         4.3614   -9.9164    3.2742 H         1 <0>         0.1368
     44 H20         4.2598   -8.6735    5.4001 H         1 <0>         0.1422
     45 H21        -0.2868   -6.7779    4.6237 H         1 <0>         0.1003
     46 H22         1.7703   -4.5555    4.2870 H         1 <0>         0.0829
     47 H23         0.2377   -4.4664    5.1827 H         1 <0>         0.1091
     48 H24         1.6289   -5.1463    6.9318 H         1 <0>         0.4108
     49 H25         0.4748   -0.3293   -0.8280 H         1 <0>         0.4217
@<TRIPOS>BOND
     1    1    2 1
     2    1   25 1
     3    1   26 1
     4    1   27 1
     5    2    7 1
     6    2    3 1
     7    2   49 1
     8    3    4 1
     9    3   28 1
    10    3   29 1
    11    4    5 1
    12    4   30 1
    13    4   31 1
    14    5    6 1
    15    5    8 1
    16    6    7 1
    17    6   32 1
    18    6   33 1
    19    7   34 1
    20    7   35 1
    21    8    9 1
    22    8   36 1
    23    8   37 1
    24    9   10 2
    25    9   11 am
    26   11   20 1
    27   11   12 1
    28   12   13 1
    29   12   38 1
    30   12   39 1
    31   13   14 1
    32   13   40 1
    33   13   41 1
    34   14   19 ar
    35   14   15 ar
    36   15   16 ar
    37   15   42 1
    38   16   17 ar
    39   16   43 1
    40   17   18 ar
    41   17   44 1
    42   18   23 1
    43   18   19 ar
    44   19   20 1
    45   20   21 1
    46   20   45 1
    47   21   22 1
    48   21   46 1
    49   21   47 1
    50   22   23 am
    51   22   48 1
    52   23   24 2
@<TRIPOS>MOLECULE
CHEMBL188985
   60    64     0     0     0
SMALL
USER_CHARGES

@<TRIPOS>ATOM
      1 C1         -0.0165    1.3838    0.0098 C.ar      1 <0>         0.0081
      2 C2          1.1135    1.9119    0.6176 C.ar      1 <0>        -0.1110
      3 C3          2.2933    1.1971    0.5841 C.ar      1 <0>         0.1144
      4 N1          2.3537    0.0182   -0.0203 N.ar      1 <0>        -0.2777
      5 C4          1.2922   -0.5143   -0.6105 C.ar      1 <0>         0.1146
      6 C5          0.0817    0.1480   -0.6137 C.ar      1 <0>        -0.1110
      7 C6          3.5486   -0.6699   -0.0359 C.ar      1 <0>         0.0267
      8 C7          4.7521    0.0262   -0.1437 C.ar      1 <0>        -0.0861
      9 C8          5.9459   -0.6600   -0.1593 C.ar      1 <0>        -0.0814
     10 C9          5.9510   -2.0534   -0.0672 C.ar      1 <0>        -0.0240
     11 C10         4.7451   -2.7495    0.0407 C.ar      1 <0>        -0.0800
     12 C11         3.5528   -2.0610    0.0619 C.ar      1 <0>        -0.0860
     13 C12         7.2309   -2.7906   -0.0843 C.2       1 <0>        -0.0793
     14 C13         8.0743   -2.6212    0.9120 C.2       1 <0>        -0.1552
     15 C14         9.3971   -3.3272    0.9910 C.3       1 <0>         0.0265
     16 N2          9.7817   -3.8427   -0.3281 N.4       1 <0>        -0.3857
     17 C15         8.6748   -4.6472   -0.8691 C.3       1 <0>        -0.0050
     18 C16         7.5214   -3.7125   -1.2366 C.3       1 <0>        -0.1116
     19 C17        10.9809   -4.6810   -0.1979 C.3       1 <0>        -0.0138
     20 C18        12.1594   -3.8181    0.2577 C.3       1 <0>        -0.1320
     21 C19        13.4084   -4.6913    0.3934 C.3       1 <0>        -0.0718
     22 C20        14.5691   -3.8414    0.8421 C.2       1 <0>         0.3863
     23 N3         14.3651   -2.5742    1.0383 N.2       1 <0>        -0.5208
     24 C21        15.3618   -1.7477    1.4429 C.ar      1 <0>         0.1424
     25 C22        15.1430   -0.3847    1.6536 C.ar      1 <0>        -0.1104
     26 C23        16.1839    0.4174    2.0638 C.ar      1 <0>        -0.0695
     27 C24        17.4511   -0.1119    2.2712 C.ar      1 <0>        -0.1265
     28 C25        17.6918   -1.4532    2.0695 C.ar      1 <0>        -0.0386
     29 C26        16.6517   -2.2825    1.6547 C.ar      1 <0>        -0.1927
     30 C27        16.8489   -3.7212    1.4235 C.2       1 <0>         0.5490
     31 N4         15.7741   -4.4413    1.0259 N.am      1 <0>        -0.6535
     32 O1         17.9354   -4.2450    1.5877 O.2       1 <0>        -0.4918
     33 H1         -0.9533    1.9209    0.0255 H         1 <0>         0.1830
     34 H2          1.0702    2.8717    1.1110 H         1 <0>         0.1915
     35 H3          3.1770    1.6021    1.0548 H         1 <0>         0.2052
     36 H4          1.3761   -1.4763   -1.0941 H         1 <0>         0.2053
     37 H5         -0.7796   -0.2905   -1.0956 H         1 <0>         0.1915
     38 H6          4.7480    1.1038   -0.2152 H         1 <0>         0.1508
     39 H7          6.8779   -0.1207   -0.2431 H         1 <0>         0.1519
     40 H8          4.7480   -3.8272    0.1120 H         1 <0>         0.1522
     41 H9          2.6204   -2.5988    0.1501 H         1 <0>         0.1510
     42 H10         7.8028   -1.9439    1.7082 H         1 <0>         0.1533
     43 H11        10.1578   -2.6295    1.3412 H         1 <0>         0.1503
     44 H12         9.3217   -4.1567    1.6942 H         1 <0>         0.1456
     45 H13         9.0112   -5.1818   -1.7575 H         1 <0>         0.1427
     46 H14         8.3380   -5.3596   -0.1160 H         1 <0>         0.1354
     47 H15         6.6326   -4.3012   -1.4636 H         1 <0>         0.1256
     48 H16         7.8000   -3.1243   -2.1109 H         1 <0>         0.1102
     49 H17        10.7984   -5.4644    0.5377 H         1 <0>         0.1347
     50 H18        11.2136   -5.1344   -1.1614 H         1 <0>         0.1374
     51 H19        12.3418   -3.0347   -0.4779 H         1 <0>         0.1016
     52 H20        11.9266   -3.3647    1.2212 H         1 <0>         0.1002
     53 H21        13.2259   -5.4747    1.1290 H         1 <0>         0.1099
     54 H22        13.6411   -5.1447   -0.5702 H         1 <0>         0.1104
     55 H23        14.1620    0.0382    1.4953 H         1 <0>         0.1369
     56 H24        16.0131    1.4714    2.2260 H         1 <0>         0.1389
     57 H25        18.2549    0.5338    2.5930 H         1 <0>         0.1405
     58 H26        18.6793   -1.8592    2.2323 H         1 <0>         0.1432
     59 H27        15.8658   -5.3939    0.8673 H         1 <0>         0.4207
     60 H28         9.9733   -3.0711   -0.9494 H         1 <0>         0.4278
@<TRIPOS>BOND
     1    1    6 ar
     2    1    2 ar
     3    1   33 1
     4    2    3 ar
     5    2   34 1
     6    3    4 ar
     7    3   35 1
     8    4    5 ar
     9    4    7 1
    10    5    6 ar
    11    5   36 1
    12    6   37 1
    13    7   12 ar
    14    7    8 ar
    15    8    9 ar
    16    8   38 1
    17    9   10 ar
    18    9   39 1
    19   10   11 ar
    20   10   13 1
    21   11   12 ar
    22   11   40 1
    23   12   41 1
    24   13   18 1
    25   13   14 2
    26   14   15 1
    27   14   42 1
    28   15   16 1
    29   15   43 1
    30   15   44 1
    31   16   17 1
    32   16   19 1
    33   16   60 1
    34   17   18 1
    35   17   45 1
    36   17   46 1
    37   18   47 1
    38   18   48 1
    39   19   20 1
    40   19   49 1
    41   19   50 1
    42   20   21 1
    43   20   51 1
    44   20   52 1
    45   21   53 1
    46   21   54 1
    47   21   22 1
    48   22   23 2
    49   22   31 1
    50   23   24 1
    51   24   29 ar
    52   24   25 ar
    53   25   26 ar
    54   25   55 1
    55   26   27 ar
    56   26   56 1
    57   27   28 ar
    58   27   57 1
    59   28   29 ar
    60   28   58 1
    61   29   30 1
    62   30   32 2
    63   30   31 am
    64   31   59 1
@<TRIPOS>MOLECULE
CHEMBL483348
   22    23     0     0     0
SMALL
USER_CHARGES

@<TRIPOS>ATOM
      1 C1         -0.0127    1.0858    0.0080 C.3       1 <0>        -0.1150
      2 C2         -0.7416    1.5850   -1.2129 C.2       1 <0>         0.4026
      3 N1         -1.2275    0.7304   -2.0607 N.2       1 <0>        -0.5454
      4 H1         -0.5077    3.5427   -0.7706 H         1 <0>         0.4216
      5 C3         -1.8927    1.0969   -3.1809 C.2       1 <0>         0.1928
      6 C4         -2.0927    2.4095   -3.4069 C.2       1 <0>        -0.2515
      7 C5         -1.5473    3.3487   -2.4889 C.2       1 <0>         0.5289
      8 O1         -1.6858    4.5452   -2.6816 O.2       1 <0>        -0.5282
      9 N2         -0.8833    2.9117   -1.4044 N.am      1 <0>        -0.6327
     10 C6         -2.8771    3.0053   -4.5478 C.3       1 <0>        -0.0158
     11 S1         -3.0347    1.8012   -5.8961 S.3       1 <0>        -0.2451
     12 C7         -3.4680    0.2839   -4.9862 C.3       1 <0>        -0.0834
     13 C8         -2.3051   -0.0471   -4.0615 C.3       1 <0>        -0.0747
     14 H2          0.0021   -0.0041    0.0020 H         1 <0>         0.1079
     15 H3          1.0099    1.4631    0.0003 H         1 <0>         0.0973
     16 H4         -0.5229    1.4373    0.9048 H         1 <0>         0.0968
     17 H5         -3.8700    3.2854   -4.1959 H         1 <0>         0.0983
     18 H6         -2.3627    3.8933   -4.9149 H         1 <0>         0.1225
     19 H7         -4.3713    0.4500   -4.3993 H         1 <0>         0.0908
     20 H8         -3.6273   -0.5350   -5.6877 H         1 <0>         0.1218
     21 H9         -1.4505   -0.3452   -4.6689 H         1 <0>         0.1056
     22 H10        -2.5905   -0.8882   -3.4297 H         1 <0>         0.1046
@<TRIPOS>BOND
     1    1   14 1
     2    1   15 1
     3    1   16 1
     4    1    2 1
     5    2    3 2
     6    2    9 1
     7    3    5 1
     8    4    9 1
     9    5    6 2
    10    5   13 1
    11    6    7 1
    12    6   10 1
    13    7    8 2
    14    7    9 am
    15   10   11 1
    16   10   17 1
    17   10   18 1
    18   11   12 1
    19   12   13 1
    20   12   19 1
    21   12   20 1
    22   13   21 1
    23   13   22 1
@<TRIPOS>MOLECULE
CHEMBL497591
   33    36     0     0     0
SMALL
USER_CHARGES

@<TRIPOS>ATOM
      1 C1         -0.1569    1.4550    0.0058 C.3       1 <0>         0.0929
      2 N1         -0.0563   -0.0065    0.0002 N.pl3     1 <0>        -0.3777
      3 C2          0.0711   -0.7785   -1.1070 C.2       1 <0>         0.3536
      4 C3          0.1339   -2.1011   -0.6857 C.2       1 <0>        -0.2465
      5 C4          0.2699   -3.1654   -1.6237 C.2       1 <0>         0.0670
      6 C5          0.3381   -2.8591   -2.9382 C.2       1 <0>        -0.2360
      7 C6          0.2702   -1.4938   -3.3321 C.2       1 <0>         0.5676
      8 O1          0.3321   -1.2196   -4.5192 O.2       1 <0>        -0.5253
      9 N2          0.1419   -0.4992   -2.4450 N.am      1 <0>        -0.6016
     10 H1          0.0987    0.4203   -2.7509 H         1 <0>         0.4183
     11 C7          0.4851   -4.0252   -3.9182 C.3       1 <0>         0.0071
     12 S1          0.9872   -5.3954   -2.7982 S.3       1 <0>        -0.2630
     13 C8          0.3458   -4.6457   -1.2456 C.3       1 <0>        -0.0395
     14 C9          0.0350   -2.0801    0.7766 C.2       1 <0>         0.1811
     15 N3         -0.0706   -0.8218    1.1367 N.2       1 <0>        -0.2462
     16 C10         0.0555   -3.2564    1.6786 C.ar      1 <0>        -0.0286
     17 C11         0.8318   -3.2368    2.8364 C.ar      1 <0>        -0.0833
     18 C12         0.8466   -4.3346    3.6725 C.ar      1 <0>        -0.1183
     19 C13         0.0932   -5.4529    3.3637 C.ar      1 <0>        -0.1018
     20 C14        -0.6786   -5.4782    2.2159 C.ar      1 <0>        -0.1182
     21 C15        -0.7058   -4.3841    1.3753 C.ar      1 <0>        -0.0959
     22 H2          0.8414    1.8877    0.0708 H         1 <0>         0.0843
     23 H3         -0.6387    1.7896   -0.9130 H         1 <0>         0.0880
     24 H4         -0.7483    1.7752    0.8636 H         1 <0>         0.1041
     25 H5         -0.4644   -4.2475   -4.4052 H         1 <0>         0.1082
     26 H6          1.2612   -3.8197   -4.6554 H         1 <0>         0.1174
     27 H7          1.0405   -4.8026   -0.4205 H         1 <0>         0.1251
     28 H8         -0.6419   -5.0373   -1.0021 H         1 <0>         0.1209
     29 H9          1.4207   -2.3644    3.0783 H         1 <0>         0.1280
     30 H10         1.4479   -4.3208    4.5696 H         1 <0>         0.1297
     31 H11         0.1079   -6.3097    4.0210 H         1 <0>         0.1280
     32 H12        -1.2642   -6.3543    1.9795 H         1 <0>         0.1313
     33 H13        -1.3122   -4.4032    0.4818 H         1 <0>         0.1292
@<TRIPOS>BOND
     1    1    2 1
     2    1   22 1
     3    1   23 1
     4    1   24 1
     5    2   15 1
     6    2    3 1
     7    3    9 1
     8    3    4 2
     9    4    5 1
    10    4   14 1
    11    5   13 1
    12    5    6 2
    13    6    7 1
    14    6   11 1
    15    7    8 2
    16    7    9 am
    17    9   10 1
    18   11   12 1
    19   11   25 1
    20   11   26 1
    21   12   13 1
    22   13   27 1
    23   13   28 1
    24   14   15 2
    25   14   16 1
    26   16   21 ar
    27   16   17 ar
    28   17   18 ar
    29   17   29 1
    30   18   19 ar
    31   18   30 1
    32   19   20 ar
    33   19   31 1
    34   20   21 ar
    35   20   32 1
    36   21   33 1
@<TRIPOS>MOLECULE
CHEMBL521686
   55    59     0     0     0
SMALL
USER_CHARGES

@<TRIPOS>ATOM
      1 C1         -0.0518    1.3844    0.1044 C.ar      1 <0>        -0.0871
      2 C2          1.1250    2.1221    0.1174 C.ar      1 <0>        -0.1100
      3 C3          2.3501    1.4921    0.1057 C.ar      1 <0>        -0.0544
      4 C4          2.4031    0.0991    0.0811 C.ar      1 <0>        -0.1253
      5 C5          1.2031   -0.6481    0.0685 C.ar      1 <0>        -0.0605
      6 C6         -0.0239    0.0180    0.0803 C.ar      1 <0>        -0.0976
      7 C7          1.2888   -2.1083    0.0421 C.2       1 <0>         0.1363
      8 N1          2.4504   -2.6913    0.0313 N.2       1 <0>        -0.2208
      9 N2          3.6506   -1.9802    0.0434 N.am      1 <0>        -0.5331
     10 H1          4.4888   -2.4684    0.0344 H         1 <0>         0.4373
     11 C8          3.6765   -0.6313    0.0672 C.2       1 <0>         0.5284
     12 O1          4.7364   -0.0310    0.0769 O.2       1 <0>        -0.5196
     13 C9          0.0300   -2.9367    0.0281 C.3       1 <0>        -0.0170
     14 C10         0.3915   -4.3995    0.0015 C.ar      1 <0>        -0.0901
     15 C11         0.5618   -5.0463   -1.2108 C.ar      1 <0>        -0.0510
     16 C12         0.8934   -6.3874   -1.2460 C.ar      1 <0>        -0.1523
     17 C13         1.0578   -7.0929   -0.0676 C.ar      1 <0>         0.1488
     18 C14         0.8874   -6.4446    1.1595 C.ar      1 <0>        -0.1630
     19 C15         0.5571   -5.0878    1.1844 C.ar      1 <0>        -0.0461
     20 C16         1.0605   -7.1896    2.4229 C.2       1 <0>         0.5673
     21 O2          2.0858   -7.8101    2.6271 O.2       1 <0>        -0.5171
     22 N3          0.0817   -7.1817    3.3493 N.am      1 <0>        -0.6081
     23 C17        -1.2136   -6.5487    3.0637 C.3       1 <0>         0.0905
     24 C18        -2.3250   -7.5792    3.2984 C.3       1 <0>         0.0968
     25 N4         -2.1164   -8.2038    4.6122 N.am      1 <0>        -0.6116
     26 C19        -0.8212   -8.8368    4.8979 C.3       1 <0>         0.0933
     27 C20         0.2883   -7.8113    4.6611 C.3       1 <0>         0.0961
     28 C21        -3.0952   -8.1959    5.5387 C.2       1 <0>         0.5483
     29 O3         -4.1598   -7.6701    5.2916 O.2       1 <0>        -0.5362
     30 C22        -2.8668   -8.8405    6.8816 C.3       1 <0>        -0.2013
     31 C23        -3.6546  -10.1136    7.1973 C.3       1 <0>        -0.1501
     32 C24        -4.0166   -8.7983    7.8901 C.3       1 <0>        -0.1455
     33 F1          1.3815   -8.4041   -0.1021 F         1 <0>        -0.1247
     34 H2         -1.0021    1.8974    0.1181 H         1 <0>         0.1370
     35 H3          1.0791    3.2009    0.1364 H         1 <0>         0.1377
     36 H4          3.2612    2.0720    0.1152 H         1 <0>         0.1436
     37 H5         -0.9463   -0.5436    0.0702 H         1 <0>         0.1422
     38 H6         -0.5554   -2.7233    0.9224 H         1 <0>         0.1095
     39 H7         -0.5566   -2.6913   -0.8573 H         1 <0>         0.1119
     40 H8          0.4346   -4.4999   -2.1337 H         1 <0>         0.1383
     41 H9          1.0240   -6.8857   -2.1953 H         1 <0>         0.1446
     42 H10         0.4276   -4.5798    2.1286 H         1 <0>         0.1358
     43 H11        -1.3586   -5.6965    3.7277 H         1 <0>         0.0794
     44 H12        -1.2369   -6.2154    2.0262 H         1 <0>         0.1021
     45 H13        -3.2948   -7.0819    3.2796 H         1 <0>         0.1086
     46 H14        -2.2870   -8.3418    2.5206 H         1 <0>         0.0745
     47 H15        -0.7979   -9.1702    5.9354 H         1 <0>         0.1036
     48 H16        -0.6762   -9.6890    4.2339 H         1 <0>         0.0784
     49 H17         1.2565   -8.3116    4.6783 H         1 <0>         0.1090
     50 H18         0.2526   -7.0511    5.4414 H         1 <0>         0.0770
     51 H19        -1.8519   -8.7664    7.2721 H         1 <0>         0.1261
     52 H20        -4.3380  -10.4849    6.4337 H         1 <0>         0.0998
     53 H21        -3.1578  -10.8774    7.7955 H         1 <0>         0.1066
     54 H22        -3.7581   -8.6969    8.9442 H         1 <0>         0.1051
     55 H23        -4.9382   -8.3044    7.5823 H         1 <0>         0.1086
@<TRIPOS>BOND
     1    1    6 ar
     2    1    2 ar
     3    1   34 1
     4    2    3 ar
     5    2   35 1
     6    3    4 ar
     7    3   36 1
     8    4   11 1
     9    4    5 ar
    10    5    6 ar
    11    5    7 1
    12    6   37 1
    13    7    8 2
    14    7   13 1
    15    8    9 1
    16    9   10 1
    17    9   11 am
    18   11   12 2
    19   13   14 1
    20   13   38 1
    21   13   39 1
    22   14   19 ar
    23   14   15 ar
    24   15   16 ar
    25   15   40 1
    26   16   17 ar
    27   16   41 1
    28   17   18 ar
    29   17   33 1
    30   18   19 ar
    31   18   20 1
    32   19   42 1
    33   20   21 2
    34   20   22 am
    35   22   27 1
    36   22   23 1
    37   23   24 1
    38   23   43 1
    39   23   44 1
    40   24   25 1
    41   24   45 1
    42   24   46 1
    43   25   26 1
    44   25   28 am
    45   26   27 1
    46   26   47 1
    47   26   48 1
    48   27   49 1
    49   27   50 1
    50   28   29 2
    51   28   30 1
    52   30   32 1
    53   30   31 1
    54   30   51 1
    55   31   32 1
    56   31   52 1
    57   31   53 1
    58   32   54 1
    59   32   55 1
@<TRIPOS>MOLECULE
CHEMBL593611
   39    42     0     0     0
SMALL
USER_CHARGES

@<TRIPOS>ATOM
      1 C1          0.0957    1.5675    0.0074 C.ar      1 <0>        -0.1189
      2 C2          1.3179    2.2127   -0.0223 C.ar      1 <0>        -0.1199
      3 C3          2.4879    1.4766   -0.0367 C.ar      1 <0>        -0.1159
      4 C4          2.4357    0.0953   -0.0209 C.ar      1 <0>        -0.0766
      5 C5          1.2135   -0.5499    0.0097 C.ar      1 <0>        -0.0990
      6 C6          0.0435    0.1862    0.0227 C.ar      1 <0>        -0.1194
      7 C7          3.7112   -0.7071   -0.0376 C.3       1 <0>         0.0761
      8 N1          4.1530   -0.9531    1.3416 N.3       1 <0>        -0.5067
      9 C8          4.5907    0.2894    1.9821 C.3       1 <0>         0.0499
     10 C9          5.7115    0.9469    1.1947 C.3       1 <0>        -0.1178
     11 C10         6.6567   -0.0536    0.5936 C.ar      1 <0>        -0.0811
     12 C11         7.7961    0.4153   -0.0504 C.ar      1 <0>        -0.0914
     13 C12         8.7045   -0.4620   -0.6093 C.ar      1 <0>        -0.1224
     14 C13         8.4870   -1.8236   -0.5387 C.ar      1 <0>        -0.0586
     15 C14         7.3420   -2.3022    0.0919 C.ar      1 <0>        -0.1291
     16 C15         6.4333   -1.4089    0.6685 C.ar      1 <0>        -0.0824
     17 C16         5.2241   -1.9591    1.3802 C.3       1 <0>         0.1049
     18 C17         4.7459   -3.2367    0.6939 C.3       1 <0>         0.1150
     19 N2          5.8497   -4.1819    0.5341 N.am      1 <0>        -0.7237
     20 C18         7.0751   -3.7537    0.1762 C.2       1 <0>         0.5646
     21 O1          7.9544   -4.5541   -0.0763 O.2       1 <0>        -0.5308
     22 H1         -0.8183    2.1426    0.0231 H         1 <0>         0.1211
     23 H2          1.3587    3.2918   -0.0347 H         1 <0>         0.1213
     24 H3          3.4427    1.9807   -0.0606 H         1 <0>         0.1180
     25 H4          1.1728   -1.6290    0.0217 H         1 <0>         0.1221
     26 H5         -0.9113   -0.3179    0.0462 H         1 <0>         0.1222
     27 H6          3.5348   -1.6593   -0.5379 H         1 <0>         0.0895
     28 H7          4.4822   -0.1528   -0.5727 H         1 <0>         0.0549
     29 H8          3.7466    0.9763    2.0438 H         1 <0>         0.0919
     30 H9          4.9439    0.0673    2.9891 H         1 <0>         0.0807
     31 H10         5.2761    1.5454    0.3945 H         1 <0>         0.0794
     32 H11         6.2708    1.6048    1.8599 H         1 <0>         0.0872
     33 H12         7.9729    1.4788   -0.1148 H         1 <0>         0.1282
     34 H13         9.5868   -0.0822   -1.1029 H         1 <0>         0.1330
     35 H14         9.1992   -2.5117   -0.9695 H         1 <0>         0.1379
     36 H15         5.4806   -2.1773    2.4169 H         1 <0>         0.1098
     37 H16         3.9636   -3.6971    1.2974 H         1 <0>         0.1016
     38 H17         4.3417   -2.9875   -0.2872 H         1 <0>         0.0745
     39 H18         5.6976   -5.1276    0.6874 H         1 <0>         0.4100
@<TRIPOS>BOND
     1    1    6 ar
     2    1    2 ar
     3    1   22 1
     4    2    3 ar
     5    2   23 1
     6    3    4 ar
     7    3   24 1
     8    4    5 ar
     9    4    7 1
    10    5    6 ar
    11    5   25 1
    12    6   26 1
    13    7    8 1
    14    7   27 1
    15    7   28 1
    16    8   17 1
    17    8    9 1
    18    9   10 1
    19    9   29 1
    20    9   30 1
    21   10   11 1
    22   10   31 1
    23   10   32 1
    24   11   16 ar
    25   11   12 ar
    26   12   13 ar
    27   12   33 1
    28   13   14 ar
    29   13   34 1
    30   14   15 ar
    31   14   35 1
    32   15   20 1
    33   15   16 ar
    34   16   17 1
    35   17   18 1
    36   17   36 1
    37   18   19 1
    38   18   37 1
    39   18   38 1
    40   19   20 am
    41   19   39 1
    42   20   21 2
@<TRIPOS>MOLECULE
CHEMBL593611__1
   39    42     0     0     0
SMALL
USER_CHARGES

@<TRIPOS>ATOM
      1 C1         -0.0167    1.3781    0.0096 C.ar      1 <0>        -0.1174
      2 C2          1.1709    2.0855    0.0021 C.ar      1 <0>        -0.1201
      3 C3          2.3773    1.4107   -0.0130 C.ar      1 <0>        -0.1153
      4 C4          2.3960    0.0285   -0.0201 C.ar      1 <0>        -0.0808
      5 C5          1.2084   -0.6789   -0.0117 C.ar      1 <0>        -0.0966
      6 C6          0.0021   -0.0041    0.0020 C.ar      1 <0>        -0.1197
      7 C7          3.7112   -0.7071   -0.0376 C.3       1 <0>         0.0865
      8 N1          4.1530   -0.9531    1.3416 N.3       1 <0>        -0.5177
      9 C8          4.4786    0.3034    2.0205 C.3       1 <0>         0.0500
     10 C9          4.7058    0.0811    3.5062 C.3       1 <0>        -0.0764
     11 C10         5.3976   -1.2205    3.7945 C.ar      1 <0>        -0.0705
     12 C11         5.7759   -1.4938    5.1042 C.ar      1 <0>        -0.0932
     13 C12         6.4269   -2.6695    5.4218 C.ar      1 <0>        -0.1235
     14 C13         6.7057   -3.5956    4.4365 C.ar      1 <0>        -0.0593
     15 C14         6.3176   -3.3377    3.1249 C.ar      1 <0>        -0.1328
     16 C15         5.6722   -2.1382    2.8072 C.ar      1 <0>        -0.0412
     17 C16         5.3024   -1.8690    1.3712 C.3       1 <0>         0.1066
     18 C17         4.9303   -3.1738    0.6705 C.3       1 <0>         0.1179
     19 N2          5.9754   -4.1784    0.8594 N.am      1 <0>        -0.7250
     20 C18         6.5928   -4.3129    2.0485 C.2       1 <0>         0.5657
     21 O1          7.3706   -5.2282    2.2351 O.2       1 <0>        -0.5312
     22 H1         -0.9591    1.9053    0.0259 H         1 <0>         0.1215
     23 H2          1.1563    3.1654    0.0076 H         1 <0>         0.1219
     24 H3          3.3051    1.9634   -0.0196 H         1 <0>         0.1189
     25 H4          1.2231   -1.7588   -0.0176 H         1 <0>         0.1226
     26 H5         -0.9258   -0.5567    0.0082 H         1 <0>         0.1225
     27 H6          3.5884   -1.6586   -0.5549 H         1 <0>         0.0904
     28 H7          4.4573   -0.1052   -0.5563 H         1 <0>         0.0493
     29 H8          5.3825    0.7240    1.5797 H         1 <0>         0.0377
     30 H9          3.6562    1.0060    1.8859 H         1 <0>         0.0926
     31 H10         5.3139    0.8974    3.8959 H         1 <0>         0.0830
     32 H11         3.7419    0.0882    4.0151 H         1 <0>         0.0851
     33 H12         5.5583   -0.7775    5.8827 H         1 <0>         0.1287
     34 H13         6.7189   -2.8648    6.4431 H         1 <0>         0.1327
     35 H14         7.2209   -4.5126    4.6815 H         1 <0>         0.1376
     36 H15         6.1471   -1.4089    0.8585 H         1 <0>         0.0669
     37 H16         3.9935   -3.5483    1.0830 H         1 <0>         0.0820
     38 H17         4.8024   -2.9850   -0.3954 H         1 <0>         0.0912
     39 H18         6.2267   -4.7542    0.1204 H         1 <0>         0.4092
@<TRIPOS>BOND
     1    1    6 ar
     2    1    2 ar
     3    1   22 1
     4    2    3 ar
     5    2   23 1
     6    3    4 ar
     7    3   24 1
     8    4    5 ar
     9    4    7 1
    10    5    6 ar
    11    5   25 1
    12    6   26 1
    13    7    8 1
    14    7   27 1
    15    7   28 1
    16    8   17 1
    17    8    9 1
    18    9   10 1
    19    9   29 1
    20    9   30 1
    21   10   11 1
    22   10   31 1
    23   10   32 1
    24   11   16 ar
    25   11   12 ar
    26   12   13 ar
    27   12   33 1
    28   13   14 ar
    29   13   34 1
    30   14   15 ar
    31   14   35 1
    32   15   20 1
    33   15   16 ar
    34   16   17 1
    35   17   18 1
    36   17   36 1
    37   18   19 1
    38   18   37 1
    39   18   38 1
    40   19   20 am
    41   19   39 1
    42   20   21 2
@<TRIPOS>MOLECULE
CHEMBL596168
   38    41     0     0     0
SMALL
USER_CHARGES

@<TRIPOS>ATOM
      1 C1         -0.0180    1.3776   -0.0238 C.ar      1 <0>        -0.0968
      2 C2          0.9801    1.7505    0.8588 C.ar      1 <0>        -0.1200
      3 C3          2.1884    1.0847    0.8598 C.ar      1 <0>        -0.0690
      4 C4          2.4028    0.0329   -0.0324 C.ar      1 <0>        -0.1281
      5 C5          1.3918   -0.3382   -0.9201 C.ar      1 <0>        -0.0943
      6 C6          0.1881    0.3358   -0.9107 C.ar      1 <0>        -0.1218
      7 C7          3.6955   -0.6847   -0.0372 C.2       1 <0>         0.5690
      8 O1          4.7358   -0.0623   -0.1263 O.2       1 <0>        -0.5226
      9 N1          3.7204   -2.0289    0.0571 N.am      1 <0>        -0.5993
     10 C8          2.4824   -2.8147    0.0621 C.3       1 <0>         0.0967
     11 C9          2.3803   -3.6491    1.3256 C.3       1 <0>        -0.0968
     12 C10         3.7073   -4.0885    1.8706 C.ar      1 <0>        -0.0738
     13 C11         3.7017   -4.9801    2.9419 C.ar      1 <0>        -0.0930
     14 C12         4.8810   -5.4302    3.4987 C.ar      1 <0>        -0.1206
     15 C13         6.0940   -4.9912    3.0065 C.ar      1 <0>        -0.0563
     16 C14         6.1126   -4.0931    1.9438 C.ar      1 <0>        -0.1247
     17 C15         4.9120   -3.6673    1.3633 C.ar      1 <0>        -0.0668
     18 C16         4.9884   -2.7630    0.1526 C.3       1 <0>         0.1709
     19 C17         6.1494   -1.7843    0.3026 C.3       1 <0>         0.1220
     20 N2          7.3912   -2.5114    0.5705 N.am      1 <0>        -0.7302
     21 C18         7.3905   -3.5813    1.4052 C.2       1 <0>         0.5603
     22 O2          8.4378   -4.1243    1.6983 O.2       1 <0>        -0.5307
     23 H1         -0.9637    1.8991   -0.0174 H         1 <0>         0.1290
     24 H2          0.8131    2.5647    1.5484 H         1 <0>         0.1314
     25 H3          2.9669    1.3770    1.5490 H         1 <0>         0.1300
     26 H4          1.5515   -1.1510   -1.6132 H         1 <0>         0.1306
     27 H5         -0.5950    0.0497   -1.5972 H         1 <0>         0.1313
     28 H6          1.6285   -2.1394    0.0081 H         1 <0>         0.1068
     29 H7          2.4726   -3.4745   -0.8055 H         1 <0>         0.0791
     30 H8          1.8675   -3.0636    2.0887 H         1 <0>         0.0848
     31 H9          1.7822   -4.5345    1.1104 H         1 <0>         0.0934
     32 H10         2.7595   -5.3242    3.3421 H         1 <0>         0.1301
     33 H11         4.8553   -6.1285    4.3222 H         1 <0>         0.1344
     34 H12         7.0184   -5.3409    3.4418 H         1 <0>         0.1401
     35 H13         5.1298   -3.3637   -0.7458 H         1 <0>         0.0990
     36 H14         6.2585   -1.2096   -0.6172 H         1 <0>         0.1135
     37 H15         5.9437   -1.1038    1.1289 H         1 <0>         0.0821
     38 H16         8.2179   -2.2198    0.1552 H         1 <0>         0.4104
@<TRIPOS>BOND
     1    1    6 ar
     2    1    2 ar
     3    1   23 1
     4    2    3 ar
     5    2   24 1
     6    3    4 ar
     7    3   25 1
     8    4    5 ar
     9    4    7 1
    10    5    6 ar
    11    5   26 1
    12    6   27 1
    13    7    8 2
    14    7    9 am
    15    9   18 1
    16    9   10 1
    17   10   11 1
    18   10   28 1
    19   10   29 1
    20   11   12 1
    21   11   30 1
    22   11   31 1
    23   12   17 ar
    24   12   13 ar
    25   13   14 ar
    26   13   32 1
    27   14   15 ar
    28   14   33 1
    29   15   16 ar
    30   15   34 1
    31   16   21 1
    32   16   17 ar
    33   17   18 1
    34   18   19 1
    35   18   35 1
    36   19   20 1
    37   19   36 1
    38   19   37 1
    39   20   21 am
    40   20   38 1
    41   21   22 2
@<TRIPOS>MOLECULE
CHEMBL596168__1
   38    41     0     0     0
SMALL
USER_CHARGES

@<TRIPOS>ATOM
      1 C1         -0.0128    1.3842    0.0702 C.ar      1 <0>        -0.0941
      2 C2          0.2175    0.3374    0.9452 C.ar      1 <0>        -0.1243
      3 C3          1.4197   -0.3388    0.9154 C.ar      1 <0>        -0.0918
      4 C4          2.4047    0.0352   -0.0001 C.ar      1 <0>        -0.1324
      5 C5          2.1659    1.0921   -0.8800 C.ar      1 <0>        -0.0647
      6 C6          0.9594    1.7599   -0.8397 C.ar      1 <0>        -0.1225
      7 C7          3.6955   -0.6847   -0.0372 C.2       1 <0>         0.5686
      8 O1          4.7343   -0.0642   -0.1529 O.2       1 <0>        -0.5234
      9 N1          3.7204   -2.0289    0.0571 N.am      1 <0>        -0.5997
     10 C8          2.4824   -2.8147    0.0621 C.3       1 <0>         0.0982
     11 C9          2.4766   -3.8161   -1.0782 C.3       1 <0>        -0.0972
     12 C10         3.8402   -4.3192   -1.4500 C.ar      1 <0>        -0.0741
     13 C11         3.9149   -5.3501   -2.3850 C.ar      1 <0>        -0.0938
     14 C12         5.1323   -5.8662   -2.7788 C.ar      1 <0>        -0.1205
     15 C13         6.3047   -5.3568   -2.2570 C.ar      1 <0>        -0.0565
     16 C14         6.2437   -4.3205   -1.3303 C.ar      1 <0>        -0.1263
     17 C15         5.0031   -3.8253   -0.9115 C.ar      1 <0>        -0.0679
     18 C16         4.9884   -2.7630    0.1526 C.3       1 <0>         0.1705
     19 C17         6.1617   -1.8088   -0.0499 C.3       1 <0>         0.1207
     20 N2          7.4157   -2.5599   -0.1275 N.am      1 <0>        -0.7224
     21 C18         7.4775   -3.7323   -0.7676 C.2       1 <0>         0.5603
     22 O2          8.5418   -4.3047   -0.8987 O.2       1 <0>        -0.5363
     23 H1         -0.9573    1.9074    0.0946 H         1 <0>         0.1291
     24 H2         -0.5453    0.0493    1.6533 H         1 <0>         0.1312
     25 H3          1.5983   -1.1554    1.5992 H         1 <0>         0.1310
     26 H4          2.9241    1.3865   -1.5905 H         1 <0>         0.1318
     27 H5          0.7734    2.5779   -1.5199 H         1 <0>         0.1316
     28 H6          2.4000   -3.3485    1.0089 H         1 <0>         0.0786
     29 H7          1.6306   -2.1431   -0.0457 H         1 <0>         0.1063
     30 H8          1.8583   -4.6666   -0.7911 H         1 <0>         0.0938
     31 H9          2.0293   -3.3444   -1.9531 H         1 <0>         0.0847
     32 H10         3.0057   -5.7514   -2.8076 H         1 <0>         0.1297
     33 H11         5.1683   -6.6717   -3.4974 H         1 <0>         0.1341
     34 H12         7.2588   -5.7586   -2.5644 H         1 <0>         0.1399
     35 H13         5.0639   -3.2330    1.1331 H         1 <0>         0.0980
     36 H14         6.0175   -1.2501   -0.9747 H         1 <0>         0.0944
     37 H15         6.2092   -1.1119    0.7869 H         1 <0>         0.1060
     38 H16         8.2130   -2.2094    0.2996 H         1 <0>         0.4093
@<TRIPOS>BOND
     1    1    6 ar
     2    1    2 ar
     3    1   23 1
     4    2    3 ar
     5    2   24 1
     6    3    4 ar
     7    3   25 1
     8    4    5 ar
     9    4    7 1
    10    5    6 ar
    11    5   26 1
    12    6   27 1
    13    7    8 2
    14    7    9 am
    15    9   18 1
    16    9   10 1
    17   10   11 1
    18   10   28 1
    19   10   29 1
    20   11   12 1
    21   11   30 1
    22   11   31 1
    23   12   17 ar
    24   12   13 ar
    25   13   14 ar
    26   13   32 1
    27   14   15 ar
    28   14   33 1
    29   15   16 ar
    30   15   34 1
    31   16   21 1
    32   16   17 ar
    33   17   18 1
    34   18   19 1
    35   18   35 1
    36   19   20 1
    37   19   36 1
    38   19   37 1
    39   20   21 am
    40   20   38 1
    41   21   22 2
@<TRIPOS>MOLECULE
CHEMBL503239
   57    61     0     0     0
SMALL
USER_CHARGES

@<TRIPOS>ATOM
      1 C1         -0.9369    1.2250    0.1141 C.ar      1 <0>        -0.0862
      2 C2          0.1360    2.1009    0.2186 C.ar      1 <0>        -0.1066
      3 C3          1.4273    1.6261    0.2888 C.ar      1 <0>        -0.0528
      4 C4          1.6534    0.2507    0.2545 C.ar      1 <0>        -0.1239
      5 C5          0.5588   -0.6375    0.1485 C.ar      1 <0>        -0.0644
      6 C6         -0.7389   -0.1270    0.0788 C.ar      1 <0>        -0.0994
      7 C7          0.8257   -2.0755    0.1142 C.2       1 <0>         0.1330
      8 N1          2.0483   -2.5115    0.1811 N.2       1 <0>        -0.2241
      9 N2          3.1478   -1.6591    0.2862 N.am      1 <0>        -0.5335
     10 H1          4.0383   -2.0408    0.3326 H         1 <0>         0.4378
     11 C8          3.0051   -0.3178    0.3249 C.2       1 <0>         0.5279
     12 O1          3.9795    0.4075    0.4165 O.2       1 <0>        -0.5125
     13 C9         -0.3171   -3.0514    0.0018 C.3       1 <0>        -0.0166
     14 C10         0.2233   -4.4581   -0.0130 C.ar      1 <0>        -0.0862
     15 C11         0.5567   -5.0566   -1.2162 C.ar      1 <0>        -0.0407
     16 C12         1.0529   -6.3462   -1.2406 C.ar      1 <0>        -0.1490
     17 C13         1.2203   -7.0479   -0.0603 C.ar      1 <0>         0.1567
     18 C14         0.8856   -6.4481    1.1576 C.ar      1 <0>        -0.1804
     19 C15         0.3893   -5.1427    1.1720 C.ar      1 <0>        -0.0532
     20 C16         1.0605   -7.1896    2.4229 C.2       1 <0>         0.5764
     21 O2          2.0872   -7.8071    2.6287 O.2       1 <0>        -0.4909
     22 N3          0.0817   -7.1817    3.3493 N.am      1 <0>        -0.6302
     23 C17        -1.2177   -6.5504    3.0716 C.3       1 <0>         0.0787
     24 C18        -2.3272   -7.5459    3.4261 C.3       1 <0>        -0.0218
     25 N4         -2.1557   -7.9947    4.8136 N.4       1 <0>        -0.3819
     26 C19        -0.8981   -8.7410    4.9461 C.3       1 <0>        -0.0199
     27 C20         0.2802   -7.8096    4.6648 C.3       1 <0>         0.0894
     28 C21        -3.2800   -8.8629    5.1881 C.3       1 <0>         0.0268
     29 C22        -3.1692   -9.2306    6.6691 C.3       1 <0>        -0.2137
     30 C23        -2.9642  -10.7063    7.0172 C.3       1 <0>        -0.1685
     31 C24        -4.3143  -10.0377    7.2842 C.3       1 <0>        -0.1479
     32 F1          1.7050   -8.3087   -0.0843 F         1 <0>        -0.1207
     33 H2         -1.9419    1.6174    0.0645 H         1 <0>         0.1379
     34 H3         -0.0440    3.1655    0.2448 H         1 <0>         0.1399
     35 H4          2.2569    2.3129    0.3693 H         1 <0>         0.1454
     36 H5         -1.5819   -0.7970   -0.0030 H         1 <0>         0.1403
     37 H6         -0.9855   -2.9279    0.8538 H         1 <0>         0.1079
     38 H7         -0.8660   -2.8633   -0.9209 H         1 <0>         0.1135
     39 H8          0.4279   -4.5130   -2.1405 H         1 <0>         0.1434
     40 H9          1.3102   -6.8071   -2.1828 H         1 <0>         0.1497
     41 H10         0.1323   -4.6719    2.1093 H         1 <0>         0.1363
     42 H11        -1.3251   -5.6510    3.6780 H         1 <0>         0.1001
     43 H12        -1.2811   -6.2925    2.0144 H         1 <0>         0.1359
     44 H13        -3.2979   -7.0621    3.3179 H         1 <0>         0.1469
     45 H14        -2.2724   -8.4046    2.7570 H         1 <0>         0.1348
     46 H15        -0.8158   -9.1378    5.9580 H         1 <0>         0.1467
     47 H16        -0.8866   -9.5636    4.2310 H         1 <0>         0.1337
     48 H17         1.2067   -8.3838    4.6605 H         1 <0>         0.1377
     49 H18         0.3267   -7.0396    5.4349 H         1 <0>         0.0968
     50 H19        -4.2188   -8.3373    5.0134 H         1 <0>         0.1353
     51 H20        -3.2543   -9.7708    4.5854 H         1 <0>         0.1295
     52 H21        -2.6783   -8.4910    7.3016 H         1 <0>         0.1254
     53 H22        -2.9082  -11.4152    6.1912 H         1 <0>         0.1062
     54 H23        -2.3381  -10.9378    7.8789 H         1 <0>         0.1108
     55 H24        -4.5764   -9.8294    8.3215 H         1 <0>         0.1126
     56 H25        -5.1465  -10.3068    6.6337 H         1 <0>         0.1078
     57 H26        -2.1353   -7.1925    5.4252 H         1 <0>         0.4236
@<TRIPOS>BOND
     1    1    6 ar
     2    1    2 ar
     3    1   33 1
     4    2    3 ar
     5    2   34 1
     6    3    4 ar
     7    3   35 1
     8    4   11 1
     9    4    5 ar
    10    5    6 ar
    11    5    7 1
    12    6   36 1
    13    7    8 2
    14    7   13 1
    15    8    9 1
    16    9   10 1
    17    9   11 am
    18   11   12 2
    19   13   14 1
    20   13   37 1
    21   13   38 1
    22   14   19 ar
    23   14   15 ar
    24   15   16 ar
    25   15   39 1
    26   16   17 ar
    27   16   40 1
    28   17   18 ar
    29   17   32 1
    30   18   19 ar
    31   18   20 1
    32   19   41 1
    33   20   21 2
    34   20   22 am
    35   22   27 1
    36   22   23 1
    37   23   24 1
    38   23   42 1
    39   23   43 1
    40   24   25 1
    41   24   44 1
    42   24   45 1
    43   25   26 1
    44   25   28 1
    45   25   57 1
    46   26   27 1
    47   26   46 1
    48   26   47 1
    49   27   48 1
    50   27   49 1
    51   28   29 1
    52   28   50 1
    53   28   51 1
    54   29   31 1
    55   29   30 1
    56   29   52 1
    57   30   31 1
    58   30   53 1
    59   30   54 1
    60   31   55 1
    61   31   56 1
@<TRIPOS>MOLECULE
CHEMBL503239__1
   56    60     0     0     0
SMALL
USER_CHARGES

@<TRIPOS>ATOM
      1 C1         -0.8752    1.2387    0.1118 C.ar      1 <0>        -0.0872
      2 C2          0.2058    2.1054    0.2093 C.ar      1 <0>        -0.1103
      3 C3          1.4933    1.6193    0.2734 C.ar      1 <0>        -0.0544
      4 C4          1.7072    0.2420    0.2400 C.ar      1 <0>        -0.1252
      5 C5          0.6042   -0.6367    0.1411 C.ar      1 <0>        -0.0601
      6 C6         -0.6892   -0.1150    0.0775 C.ar      1 <0>        -0.0976
      7 C7          0.8584   -2.0771    0.1076 C.2       1 <0>         0.1362
      8 N1          2.0774   -2.5237    0.1688 N.2       1 <0>        -0.2204
      9 N2          3.1848   -1.6808    0.2667 N.am      1 <0>        -0.5331
     10 H1          4.0722   -2.0702    0.3090 H         1 <0>         0.4373
     11 C8          3.0542   -0.3383    0.3041 C.2       1 <0>         0.5283
     12 O1          4.0353    0.3785    0.3894 O.2       1 <0>        -0.5198
     13 C9         -0.2935   -3.0431    0.0027 C.3       1 <0>        -0.0163
     14 C10         0.2344   -4.4545   -0.0127 C.ar      1 <0>        -0.0928
     15 C11         0.5561   -5.0577   -1.2168 C.ar      1 <0>        -0.0506
     16 C12         1.0409   -6.3517   -1.2418 C.ar      1 <0>        -0.1548
     17 C13         1.2084   -7.0530   -0.0613 C.ar      1 <0>         0.1512
     18 C14         0.8854   -6.4485    1.1574 C.ar      1 <0>        -0.1635
     19 C15         0.4007   -5.1388    1.1724 C.ar      1 <0>        -0.0455
     20 C16         1.0605   -7.1896    2.4229 C.2       1 <0>         0.5638
     21 O2          2.0874   -7.8068    2.6288 O.2       1 <0>        -0.5212
     22 N3          0.0817   -7.1817    3.3493 N.am      1 <0>        -0.6085
     23 C17        -1.2169   -6.5500    3.0702 C.3       1 <0>         0.1072
     24 C18        -2.3274   -7.5511    3.4061 C.3       1 <0>         0.0393
     25 N4         -2.1521   -8.0278    4.7845 N.3       1 <0>        -0.5351
     26 C19        -0.8858   -8.7562    4.9394 C.3       1 <0>         0.0418
     27 C20         0.2816   -7.8099    4.6641 C.3       1 <0>         0.1164
     28 C21        -3.2906   -8.8560    5.2039 C.3       1 <0>         0.0869
     29 C22        -3.1986   -9.1256    6.7072 C.3       1 <0>        -0.1491
     30 C23        -3.0152  -10.5772    7.1546 C.3       1 <0>        -0.1846
     31 C24        -4.3594   -9.8767    7.3625 C.3       1 <0>        -0.1757
     32 F1          1.6819   -8.3181   -0.0859 F         1 <0>        -0.1235
     33 H2         -1.8770    1.6399    0.0669 H         1 <0>         0.1368
     34 H3          0.0354    3.1715    0.2348 H         1 <0>         0.1375
     35 H4          2.3293    2.2989    0.3484 H         1 <0>         0.1435
     36 H5         -1.5386   -0.7777    0.0011 H         1 <0>         0.1422
     37 H6         -0.9563   -2.9124    0.8581 H         1 <0>         0.1096
     38 H7         -0.8457   -2.8516   -0.9174 H         1 <0>         0.1113
     39 H8          0.4272   -4.5144   -2.1412 H         1 <0>         0.1377
     40 H9          1.2892   -6.8162   -2.1846 H         1 <0>         0.1439
     41 H10         0.1528   -4.6644    2.1104 H         1 <0>         0.1373
     42 H11        -1.3299   -5.6577    3.6859 H         1 <0>         0.0814
     43 H12        -1.2738   -6.2803    2.0156 H         1 <0>         0.0939
     44 H13        -3.2977   -7.0636    3.3105 H         1 <0>         0.0912
     45 H14        -2.2752   -8.3961    2.7196 H         1 <0>         0.0399
     46 H15        -0.8106   -9.1428    5.9558 H         1 <0>         0.0938
     47 H16        -0.8537   -9.5844    4.2315 H         1 <0>         0.0387
     48 H17         1.2151   -8.3727    4.6629 H         1 <0>         0.0977
     49 H18         0.3155   -7.0409    5.4359 H         1 <0>         0.0783
     50 H19        -4.2211   -8.3322    4.9850 H         1 <0>         0.0808
     51 H20        -3.2703   -9.8022    4.6632 H         1 <0>         0.0365
     52 H21        -2.7047   -8.3514    7.2943 H         1 <0>         0.1134
     53 H22        -2.9600  -11.3401    6.3781 H         1 <0>         0.0916
     54 H23        -2.4004  -10.7582    8.0363 H         1 <0>         0.0945
     55 H24        -4.6290   -9.5968    8.3809 H         1 <0>         0.0961
     56 H25        -5.1886  -10.1787    6.7227 H         1 <0>         0.0934
@<TRIPOS>BOND
     1    1    6 ar
     2    1    2 ar
     3    1   33 1
     4    2    3 ar
     5    2   34 1
     6    3    4 ar
     7    3   35 1
     8    4   11 1
     9    4    5 ar
    10    5    6 ar
    11    5    7 1
    12    6   36 1
    13    7    8 2
    14    7   13 1
    15    8    9 1
    16    9   10 1
    17    9   11 am
    18   11   12 2
    19   13   14 1
    20   13   37 1
    21   13   38 1
    22   14   19 ar
    23   14   15 ar
    24   15   16 ar
    25   15   39 1
    26   16   17 ar
    27   16   40 1
    28   17   18 ar
    29   17   32 1
    30   18   19 ar
    31   18   20 1
    32   19   41 1
    33   20   21 2
    34   20   22 am
    35   22   27 1
    36   22   23 1
    37   23   24 1
    38   23   42 1
    39   23   43 1
    40   24   25 1
    41   24   44 1
    42   24   45 1
    43   25   26 1
    44   25   28 1
    45   26   27 1
    46   26   46 1
    47   26   47 1
    48   27   48 1
    49   27   49 1
    50   28   29 1
    51   28   50 1
    52   28   51 1
    53   29   31 1
    54   29   30 1
    55   29   52 1
    56   30   31 1
    57   30   53 1
    58   30   54 1
    59   31   55 1
    60   31   56 1
@<TRIPOS>MOLECULE
CHEMBL520745
   42    45     0     0     0
SMALL
USER_CHARGES

@<TRIPOS>ATOM
      1 C1         -0.0166    1.3751    0.0096 C.ar      1 <0>        -0.1010
      2 C2          1.1740    2.0780    0.0020 C.ar      1 <0>        -0.1048
      3 C3          2.3723    1.3951   -0.0161 C.ar      1 <0>        -0.1062
      4 C4          2.3932    0.0062   -0.0252 C.ar      1 <0>        -0.1122
      5 C5          1.2079   -0.6937   -0.0125 C.ar      1 <0>        -0.1028
      6 C6          0.0021   -0.0041    0.0020 C.ar      1 <0>        -0.1059
      7 C7          1.1552   -2.1990   -0.0052 C.3       1 <0>        -0.1011
      8 C8          2.4928   -2.7856   -0.4516 C.3       1 <0>        -0.1176
      9 C9          3.6072   -2.1349    0.3764 C.3       1 <0>         0.1637
     10 C10         3.7365   -0.6749   -0.0530 C.3       1 <0>        -0.0868
     11 C11         4.9085   -2.8537    0.1296 C.2       1 <0>         0.2089
     12 N1          6.0740   -2.6003    0.7802 N.pl3     1 <0>        -0.5947
     13 H1          6.2140   -1.9368    1.4737 H         1 <0>         0.4242
     14 C12         7.0223   -3.4653    0.2689 C.ar      1 <0>         0.0643
     15 C13         8.3683   -3.6815    0.5264 C.ar      1 <0>        -0.0878
     16 C14         9.0621   -4.6494   -0.1732 C.ar      1 <0>        -0.0835
     17 C15         8.4286   -5.4139   -1.1357 C.ar      1 <0>        -0.0799
     18 C16         7.0784   -5.2178   -1.4136 C.ar      1 <0>        -0.0720
     19 C17         6.3606   -4.2313   -0.7048 C.ar      1 <0>         0.0890
     20 N2          5.0798   -3.8133   -0.7350 N.2       1 <0>        -0.3998
     21 C18         6.4045   -6.0340   -2.4395 C.2       1 <0>         0.5565
     22 O1          5.2251   -5.8585   -2.6782 O.2       1 <0>        -0.5130
     23 N3          7.0956   -6.9748   -3.1132 N.am      1 <0>        -0.8487
     24 N4          3.2668   -2.2025    1.8038 N.4       1 <0>        -0.6340
     25 H2         -0.9580    1.9042    0.0259 H         1 <0>         0.1336
     26 H3          1.1658    3.1579    0.0099 H         1 <0>         0.1333
     27 H4          3.3019    1.9448   -0.0236 H         1 <0>         0.1290
     28 H5         -0.9284   -0.5523    0.0071 H         1 <0>         0.1322
     29 H6          0.9293   -2.5458    1.0032 H         1 <0>         0.0769
     30 H7          0.3711   -2.5345   -0.6840 H         1 <0>         0.1138
     31 H8          2.4944   -3.8631   -0.2867 H         1 <0>         0.1123
     32 H9          2.6510   -2.5755   -1.5094 H         1 <0>         0.1253
     33 H10         4.1404   -0.6321   -1.0645 H         1 <0>         0.1290
     34 H11         4.4151   -0.1592    0.6265 H         1 <0>         0.0980
     35 H12         8.8750   -3.0913    1.2756 H         1 <0>         0.1384
     36 H13        10.1099   -4.8104    0.0333 H         1 <0>         0.1506
     37 H14         8.9842   -6.1668   -1.6750 H         1 <0>         0.1453
     38 H15         8.0364   -7.1148   -2.9229 H         1 <0>         0.4015
     39 H16         6.6522   -7.5119   -3.7883 H         1 <0>         0.4112
     40 H17         3.1648   -3.1677    2.0799 H         1 <0>         0.4411
     41 H18         4.0020   -1.7736    2.3456 H         1 <0>         0.4290
     42 H19         2.3997   -1.7128    1.9663 H         1 <0>         0.4447
@<TRIPOS>BOND
     1    1    6 ar
     2    1    2 ar
     3    1   25 1
     4    2    3 ar
     5    2   26 1
     6    3    4 ar
     7    3   27 1
     8    4   10 1
     9    4    5 ar
    10    5    6 ar
    11    5    7 1
    12    6   28 1
    13    7    8 1
    14    7   29 1
    15    7   30 1
    16    8    9 1
    17    8   31 1
    18    8   32 1
    19    9   10 1
    20    9   11 1
    21    9   24 1
    22   10   33 1
    23   10   34 1
    24   11   20 2
    25   11   12 1
    26   12   13 1
    27   12   14 1
    28   14   19 ar
    29   14   15 ar
    30   15   16 ar
    31   15   35 1
    32   16   17 ar
    33   16   36 1
    34   17   18 ar
    35   17   37 1
    36   18   19 ar
    37   18   21 1
    38   19   20 1
    39   21   22 2
    40   21   23 am
    41   23   38 1
    42   23   39 1
    43   24   40 1
    44   24   41 1
    45   24   42 1
@<TRIPOS>MOLECULE
CHEMBL520745__1
   41    44     0     0     0
SMALL
USER_CHARGES

@<TRIPOS>ATOM
      1 C1         -0.0166    1.3751    0.0096 C.ar      1 <0>        -0.1170
      2 C2          1.1740    2.0780    0.0020 C.ar      1 <0>        -0.1205
      3 C3          2.3723    1.3951   -0.0161 C.ar      1 <0>        -0.1172
      4 C4          2.3932    0.0062   -0.0252 C.ar      1 <0>        -0.0814
      5 C5          1.2079   -0.6937   -0.0125 C.ar      1 <0>        -0.0771
      6 C6          0.0021   -0.0041    0.0020 C.ar      1 <0>        -0.1165
      7 C7          1.1552   -2.1990   -0.0052 C.3       1 <0>        -0.0878
      8 C8          2.4928   -2.7856   -0.4516 C.3       1 <0>        -0.0904
      9 C9          3.6072   -2.1349    0.3764 C.3       1 <0>         0.2020
     10 C10         3.7365   -0.6749   -0.0530 C.3       1 <0>        -0.1076
     11 C11         4.9085   -2.8537    0.1296 C.2       1 <0>         0.3082
     12 N1          6.0740   -2.6003    0.7802 N.pl3     1 <0>        -0.5925
     13 H1          6.2140   -1.9368    1.4737 H         1 <0>         0.4217
     14 C12         7.0223   -3.4653    0.2689 C.ar      1 <0>         0.0365
     15 C13         8.3683   -3.6815    0.5264 C.ar      1 <0>        -0.0789
     16 C14         9.0621   -4.6494   -0.1732 C.ar      1 <0>        -0.1143
     17 C15         8.4286   -5.4139   -1.1357 C.ar      1 <0>        -0.0869
     18 C16         7.0784   -5.2178   -1.4136 C.ar      1 <0>        -0.0896
     19 C17         6.3606   -4.2313   -0.7048 C.ar      1 <0>         0.1040
     20 N2          5.0798   -3.8133   -0.7350 N.2       1 <0>        -0.4531
     21 C18         6.4045   -6.0340   -2.4395 C.2       1 <0>         0.5573
     22 O1          5.2251   -5.8585   -2.6782 O.2       1 <0>        -0.5099
     23 N3          7.0956   -6.9748   -3.1132 N.am      1 <0>        -0.8558
     24 N4          3.2668   -2.2025    1.8038 N.3       1 <0>        -0.8302
     25 H2         -0.9580    1.9042    0.0259 H         1 <0>         0.1235
     26 H3          1.1658    3.1579    0.0099 H         1 <0>         0.1228
     27 H4          3.3019    1.9448   -0.0236 H         1 <0>         0.1194
     28 H5         -0.9284   -0.5523    0.0071 H         1 <0>         0.1242
     29 H6          0.9293   -2.5458    1.0032 H         1 <0>         0.0857
     30 H7          0.3711   -2.5345   -0.6840 H         1 <0>         0.0847
     31 H8          2.4944   -3.8631   -0.2867 H         1 <0>         0.0908
     32 H9          2.6510   -2.5755   -1.5094 H         1 <0>         0.0804
     33 H10         4.1404   -0.6321   -1.0645 H         1 <0>         0.0891
     34 H11         4.4151   -0.1592    0.6265 H         1 <0>         0.0739
     35 H12         8.8750   -3.0913    1.2756 H         1 <0>         0.1288
     36 H13        10.1099   -4.8104    0.0333 H         1 <0>         0.1391
     37 H14         8.9842   -6.1668   -1.6750 H         1 <0>         0.1347
     38 H15         8.0364   -7.1148   -2.9229 H         1 <0>         0.3982
     39 H16         6.6522   -7.5119   -3.7883 H         1 <0>         0.4051
     40 H17         3.9882   -1.7791    2.3680 H         1 <0>         0.3371
     41 H18         2.3704   -1.7751    1.9824 H         1 <0>         0.3591
@<TRIPOS>BOND
     1    1    6 ar
     2    1    2 ar
     3    1   25 1
     4    2    3 ar
     5    2   26 1
     6    3    4 ar
     7    3   27 1
     8    4   10 1
     9    4    5 ar
    10    5    6 ar
    11    5    7 1
    12    6   28 1
    13    7    8 1
    14    7   29 1
    15    7   30 1
    16    8    9 1
    17    8   31 1
    18    8   32 1
    19    9   10 1
    20    9   11 1
    21    9   24 1
    22   10   33 1
    23   10   34 1
    24   11   20 2
    25   11   12 1
    26   12   13 1
    27   12   14 1
    28   14   19 ar
    29   14   15 ar
    30   15   16 ar
    31   15   35 1
    32   16   17 ar
    33   16   36 1
    34   17   18 ar
    35   17   37 1
    36   18   19 ar
    37   18   21 1
    38   19   20 1
    39   21   22 2
    40   21   23 am
    41   23   38 1
    42   23   39 1
    43   24   40 1
    44   24   41 1
@<TRIPOS>MOLECULE
CHEMBL520745__2
   42    45     0     0     0
SMALL
USER_CHARGES

@<TRIPOS>ATOM
      1 C1         -0.0166    1.3751    0.0096 C.ar      1 <0>        -0.1029
      2 C2          1.1740    2.0780    0.0020 C.ar      1 <0>        -0.1031
      3 C3          2.3723    1.3951   -0.0101 C.ar      1 <0>        -0.1057
      4 C4          2.3933    0.0061   -0.0172 C.ar      1 <0>        -0.1084
      5 C5          1.2078   -0.6937   -0.0148 C.ar      1 <0>        -0.1076
      6 C6          0.0021   -0.0041    0.0020 C.ar      1 <0>        -0.1056
      7 C7          1.1549   -2.1988   -0.0383 C.3       1 <0>        -0.0981
      8 C8          2.5009   -2.7904    0.3753 C.3       1 <0>        -0.1256
      9 C9          3.5989   -2.1301   -0.4667 C.3       1 <0>         0.1684
     10 C10         3.7368   -0.6751   -0.0234 C.3       1 <0>        -0.0851
     11 C11         4.9048   -2.8515   -0.2536 C.2       1 <0>         0.2210
     12 N1          5.6266   -3.4610   -1.2301 N.pl3     1 <0>        -0.6057
     13 H1          5.3974   -3.5081   -2.1714 H         1 <0>         0.4176
     14 C12         6.7484   -4.0006   -0.6308 C.ar      1 <0>         0.0616
     15 C13         7.8361   -4.7249   -1.0967 C.ar      1 <0>        -0.0873
     16 C14         8.8240   -5.1335   -0.2224 C.ar      1 <0>        -0.0850
     17 C15         8.7445   -4.8279    1.1239 C.ar      1 <0>        -0.0795
     18 C16         7.6639   -4.1018    1.6179 C.ar      1 <0>        -0.0725
     19 C17         6.6491   -3.6800    0.7331 C.ar      1 <0>         0.0934
     20 N2          5.5102   -2.9776    0.8932 N.2       1 <0>        -0.4025
     21 C18         7.5810   -3.7765    3.0532 C.2       1 <0>         0.5561
     22 O1          6.6350   -3.1421    3.4792 O.2       1 <0>        -0.5121
     23 N3          8.5536   -4.1822    3.8935 N.am      1 <0>        -0.8488
     24 N4          3.2308   -2.1815   -1.8879 N.4       1 <0>        -0.6392
     25 H2         -0.9580    1.9042    0.0259 H         1 <0>         0.1332
     26 H3          1.1658    3.1579    0.0052 H         1 <0>         0.1334
     27 H4          3.3020    1.9447   -0.0145 H         1 <0>         0.1302
     28 H5         -0.9284   -0.5523    0.0088 H         1 <0>         0.1312
     29 H6          0.3842   -2.5421    0.6519 H         1 <0>         0.1136
     30 H7          0.9093   -2.5341   -1.0459 H         1 <0>         0.0759
     31 H8          2.6797   -2.5923    1.4321 H         1 <0>         0.1315
     32 H9          2.4991   -3.8659    0.1981 H         1 <0>         0.1013
     33 H10         4.4021   -0.1516   -0.7100 H         1 <0>         0.1013
     34 H11         4.1603   -0.6438    0.9805 H         1 <0>         0.1398
     35 H12         7.9103   -4.9702   -2.1459 H         1 <0>         0.1377
     36 H13         9.6668   -5.6976   -0.5937 H         1 <0>         0.1505
     37 H14         9.5244   -5.1544    1.7958 H         1 <0>         0.1454
     38 H15         9.3081   -4.6882    3.5537 H         1 <0>         0.4013
     39 H16         8.4990   -3.9681    4.8380 H         1 <0>         0.4112
     40 H17         2.3608   -1.6901   -2.0280 H         1 <0>         0.4489
     41 H18         3.9554   -1.7463   -2.4390 H         1 <0>         0.4349
     42 H19         3.1234   -3.1434   -2.1730 H         1 <0>         0.4351
@<TRIPOS>BOND
     1    1    6 ar
     2    1    2 ar
     3    1   25 1
     4    2    3 ar
     5    2   26 1
     6    3    4 ar
     7    3   27 1
     8    4   10 1
     9    4    5 ar
    10    5    6 ar
    11    5    7 1
    12    6   28 1
    13    7    8 1
    14    7   29 1
    15    7   30 1
    16    8    9 1
    17    8   31 1
    18    8   32 1
    19    9   10 1
    20    9   11 1
    21    9   24 1
    22   10   33 1
    23   10   34 1
    24   11   20 2
    25   11   12 1
    26   12   13 1
    27   12   14 1
    28   14   19 ar
    29   14   15 ar
    30   15   16 ar
    31   15   35 1
    32   16   17 ar
    33   16   36 1
    34   17   18 ar
    35   17   37 1
    36   18   19 ar
    37   18   21 1
    38   19   20 1
    39   21   22 2
    40   21   23 am
    41   23   38 1
    42   23   39 1
    43   24   40 1
    44   24   41 1
    45   24   42 1
@<TRIPOS>MOLECULE
CHEMBL520745__3
   41    44     0     0     0
SMALL
USER_CHARGES

@<TRIPOS>ATOM
      1 C1         -0.0166    1.3751    0.0096 C.ar      1 <0>        -0.1218
      2 C2          1.1740    2.0780    0.0020 C.ar      1 <0>        -0.1236
      3 C3          2.3723    1.3951   -0.0101 C.ar      1 <0>        -0.1201
      4 C4          2.3933    0.0061   -0.0172 C.ar      1 <0>        -0.0613
      5 C5          1.2078   -0.6937   -0.0148 C.ar      1 <0>        -0.0588
      6 C6          0.0021   -0.0041    0.0020 C.ar      1 <0>        -0.1223
      7 C7          1.1549   -2.1988   -0.0383 C.3       1 <0>        -0.0684
      8 C8          2.5009   -2.7904    0.3753 C.3       1 <0>        -0.0999
      9 C9          3.5989   -2.1301   -0.4667 C.3       1 <0>         0.2062
     10 C10         3.7368   -0.6751   -0.0234 C.3       1 <0>        -0.0600
     11 C11         4.9048   -2.8515   -0.2536 C.2       1 <0>         0.2578
     12 N1          5.6266   -3.4610   -1.2301 N.pl3     1 <0>        -0.5987
     13 H1          5.3974   -3.5081   -2.1714 H         1 <0>         0.4198
     14 C12         6.7484   -4.0006   -0.6308 C.ar      1 <0>         0.0361
     15 C13         7.8361   -4.7249   -1.0967 C.ar      1 <0>        -0.0797
     16 C14         8.8240   -5.1335   -0.2224 C.ar      1 <0>        -0.1126
     17 C15         8.7445   -4.8279    1.1239 C.ar      1 <0>        -0.0863
     18 C16         7.6639   -4.1018    1.6179 C.ar      1 <0>        -0.0891
     19 C17         6.6491   -3.6800    0.7331 C.ar      1 <0>         0.1029
     20 N2          5.5102   -2.9776    0.8932 N.2       1 <0>        -0.4516
     21 C18         7.5810   -3.7765    3.0532 C.2       1 <0>         0.5569
     22 O1          6.6350   -3.1421    3.4792 O.2       1 <0>        -0.5096
     23 N3          8.5536   -4.1822    3.8935 N.am      1 <0>        -0.8553
     24 N4          3.2308   -2.1815   -1.8879 N.3       1 <0>        -0.8235
     25 H2         -0.9580    1.9042    0.0259 H         1 <0>         0.1196
     26 H3          1.1658    3.1579    0.0052 H         1 <0>         0.1197
     27 H4          3.3020    1.9447   -0.0145 H         1 <0>         0.1177
     28 H5         -0.9284   -0.5523    0.0088 H         1 <0>         0.1191
     29 H6          0.3842   -2.5421    0.6519 H         1 <0>         0.0744
     30 H7          0.9093   -2.5341   -1.0459 H         1 <0>         0.0859
     31 H8          2.6797   -2.5923    1.4321 H         1 <0>         0.0878
     32 H9          2.4991   -3.8659    0.1981 H         1 <0>         0.0679
     33 H10         4.4021   -0.1516   -0.7100 H         1 <0>         0.0744
     34 H11         4.1603   -0.6438    0.9805 H         1 <0>         0.0979
     35 H12         7.9103   -4.9702   -2.1459 H         1 <0>         0.1290
     36 H13         9.6668   -5.6976   -0.5937 H         1 <0>         0.1399
     37 H14         9.5244   -5.1544    1.7958 H         1 <0>         0.1356
     38 H15         9.3081   -4.6882    3.5537 H         1 <0>         0.3984
     39 H16         8.4990   -3.9681    4.8380 H         1 <0>         0.4056
     40 H17         3.9411   -1.7516   -2.4612 H         1 <0>         0.3446
     41 H18         3.0545   -3.1306   -2.1817 H         1 <0>         0.3452
@<TRIPOS>BOND
     1    1    6 ar
     2    1    2 ar
     3    1   25 1
     4    2    3 ar
     5    2   26 1
     6    3    4 ar
     7    3   27 1
     8    4   10 1
     9    4    5 ar
    10    5    6 ar
    11    5    7 1
    12    6   28 1
    13    7    8 1
    14    7   29 1
    15    7   30 1
    16    8    9 1
    17    8   31 1
    18    8   32 1
    19    9   10 1
    20    9   11 1
    21    9   24 1
    22   10   33 1
    23   10   34 1
    24   11   20 2
    25   11   12 1
    26   12   13 1
    27   12   14 1
    28   14   19 ar
    29   14   15 ar
    30   15   16 ar
    31   15   35 1
    32   16   17 ar
    33   16   36 1
    34   17   18 ar
    35   17   37 1
    36   18   19 ar
    37   18   21 1
    38   19   20 1
    39   21   22 2
    40   21   23 am
    41   23   38 1
    42   23   39 1
    43   24   40 1
    44   24   41 1
@<TRIPOS>MOLECULE
CHEMBL594596
   23    25     0     0     0
SMALL
USER_CHARGES

@<TRIPOS>ATOM
      1 C1         -0.0168    1.3906    0.0097 C.ar      1 <0>        -0.1148
      2 C2          1.1377    2.1147    0.0026 C.ar      1 <0>        -0.0949
      3 C3          2.3747    1.4489   -0.0129 C.ar      1 <0>        -0.0582
      4 C4          3.5977    2.1409   -0.0219 C.ar      1 <0>        -0.0727
      5 C5          4.7779    1.4617   -0.0383 C.ar      1 <0>        -0.1283
      6 C6          4.8329    0.0721   -0.0468 C.ar      1 <0>        -0.0343
      7 C7          3.6648   -0.6726   -0.0387 C.ar      1 <0>        -0.1390
      8 C8          2.3872    0.0354   -0.0206 C.ar      1 <0>        -0.0239
      9 C9          1.1818   -0.6786   -0.0133 C.ar      1 <0>        -0.0900
     10 C10         0.0021   -0.0041    0.0020 C.ar      1 <0>        -0.0915
     11 C11         1.2364   -2.1853   -0.0219 C.3       1 <0>         0.1475
     12 N1          2.5424   -2.8533   -0.0376 N.am      1 <0>        -0.7175
     13 C12         3.6866   -2.1434   -0.0482 C.2       1 <0>         0.5646
     14 O1          4.7535   -2.7266   -0.0633 O.2       1 <0>        -0.5370
     15 H1         -0.9653    1.9069    0.0261 H         1 <0>         0.1311
     16 H2          1.1019    3.1941    0.0084 H         1 <0>         0.1337
     17 H3          3.6016    3.2209   -0.0161 H         1 <0>         0.1347
     18 H4          5.7019    2.0208   -0.0452 H         1 <0>         0.1336
     19 H5          5.7899   -0.4283   -0.0601 H         1 <0>         0.1416
     20 H6         -0.9284   -0.5524    0.0083 H         1 <0>         0.1329
     21 H7          0.6987   -2.5376    0.8584 H         1 <0>         0.0832
     22 H8          0.6824   -2.5282   -0.8957 H         1 <0>         0.0830
     23 H9          2.5823   -3.8224   -0.0432 H         1 <0>         0.4161
@<TRIPOS>BOND
     1    1   10 ar
     2    1    2 ar
     3    1   15 1
     4    2    3 ar
     5    2   16 1
     6    3    8 ar
     7    3    4 ar
     8    4    5 ar
     9    4   17 1
    10    5    6 ar
    11    5   18 1
    12    6    7 ar
    13    6   19 1
    14    7   13 1
    15    7    8 ar
    16    8    9 ar
    17    9   10 ar
    18    9   11 1
    19   10   20 1
    20   11   12 1
    21   11   21 1
    22   11   22 1
    23   12   13 am
    24   12   23 1
    25   13   14 2
@<TRIPOS>MOLECULE
CHEMBL361447
   43    46     0     0     0
SMALL
USER_CHARGES

@<TRIPOS>ATOM
      1 C1          1.7728    1.4778    2.0586 C.3       1 <0>        -0.0484
      2 N1          1.7927    0.0089    2.0505 N.4       1 <0>        -0.5096
      3 C2          0.7114   -0.4907    1.1908 C.3       1 <0>         0.0453
      4 C3          0.7318   -1.9975    1.1825 C.ar      1 <0>        -0.1728
      5 C4          1.4881   -2.6709    0.2397 C.ar      1 <0>        -0.0821
      6 C5          1.5114   -4.0503    0.2270 C.ar      1 <0>        -0.1261
      7 C6          0.7701   -4.7664    1.1678 C.ar      1 <0>         0.0238
      8 C7          0.0094   -4.0811    2.1161 C.ar      1 <0>        -0.0983
      9 C8         -0.0012   -2.7015    2.1213 C.ar      1 <0>        -0.0812
     10 C9          0.7901   -6.2451    1.1597 C.2       1 <0>         0.0851
     11 C10        -0.1581   -7.0398    1.7087 C.2       1 <0>        -0.1401
     12 C11         0.2607   -8.4207    1.4720 C.ar      1 <0>        -0.1239
     13 C12        -0.2424   -9.6596    1.8801 C.ar      1 <0>        -0.0308
     14 C13         0.3888  -10.8183    1.4819 C.ar      1 <0>        -0.1521
     15 C14         1.4964  -10.7674    0.6582 C.ar      1 <0>        -0.0182
     16 C15         2.0153   -9.5422    0.2269 C.ar      1 <0>        -0.1493
     17 C16         1.4287   -8.3547    0.6909 C.ar      1 <0>         0.1451
     18 N2          1.7748   -7.0222    0.5864 N.pl3     1 <0>        -0.4775
     19 C17         3.0022   -6.5443   -0.0133 C.3       1 <0>         0.0810
     20 C18         4.1504   -7.5082    0.1330 C.3       1 <0>         0.0936
     21 N3          4.0918   -8.6106   -0.7978 N.am      1 <0>        -0.7197
     22 C19         3.1342   -9.5444   -0.7191 C.2       1 <0>         0.5596
     23 O1          3.1934  -10.4638   -1.5127 O.2       1 <0>        -0.5310
     24 H1          0.8136    1.8261    2.4417 H         1 <0>         0.1245
     25 H2          2.5751    1.8485    2.6965 H         1 <0>         0.1268
     26 H3          1.9149    1.8487    1.0435 H         1 <0>         0.1240
     27 H4          2.6806   -0.3134    1.6958 H         1 <0>         0.4290
     28 H5         -0.2478   -0.1424    1.5739 H         1 <0>         0.1390
     29 H6          0.8535   -0.1198    0.1757 H         1 <0>         0.1381
     30 H7          2.0611   -2.1156   -0.4881 H         1 <0>         0.1352
     31 H8          2.1019   -4.5748   -0.5097 H         1 <0>         0.1375
     32 H9         -0.5668   -4.6295    2.8466 H         1 <0>         0.1437
     33 H10        -0.5863   -2.1699    2.8571 H         1 <0>         0.1378
     34 H11        -1.0513   -6.7165    2.2227 H         1 <0>         0.1580
     35 H12        -1.1219   -9.7085    2.5050 H         1 <0>         0.1358
     36 H13         0.0139  -11.7743    1.8166 H         1 <0>         0.1394
     37 H14         1.9685  -11.6863    0.3432 H         1 <0>         0.1415
     38 H15         2.8273   -6.3669   -1.0744 H         1 <0>         0.0809
     39 H16         3.2764   -5.5996    0.4563 H         1 <0>         0.1024
     40 H17         5.0836   -6.9671   -0.0237 H         1 <0>         0.1120
     41 H18         4.1459   -7.9063    1.1477 H         1 <0>         0.0799
     42 H19         4.7679   -8.6802   -1.4898 H         1 <0>         0.4125
     43 H20         1.6612   -0.3344    2.9901 H         1 <0>         0.4297
@<TRIPOS>BOND
     1    1    2 1
     2    1   24 1
     3    1   25 1
     4    1   26 1
     5    2    3 1
     6    2   27 1
     7    2   43 1
     8    3    4 1
     9    3   28 1
    10    3   29 1
    11    4    9 ar
    12    4    5 ar
    13    5    6 ar
    14    5   30 1
    15    6    7 ar
    16    6   31 1
    17    7    8 ar
    18    7   10 1
    19    8    9 ar
    20    8   32 1
    21    9   33 1
    22   10   18 1
    23   10   11 2
    24   11   12 1
    25   11   34 1
    26   12   17 ar
    27   12   13 ar
    28   13   14 ar
    29   13   35 1
    30   14   15 ar
    31   14   36 1
    32   15   16 ar
    33   15   37 1
    34   16   22 1
    35   16   17 ar
    36   17   18 1
    37   18   19 1
    38   19   20 1
    39   19   38 1
    40   19   39 1
    41   20   21 1
    42   20   40 1
    43   20   41 1
    44   21   22 am
    45   21   42 1
    46   22   23 2
@<TRIPOS>MOLECULE
CHEMBL436298
   41    45     0     0     0
SMALL
USER_CHARGES

@<TRIPOS>ATOM
      1 C1         -0.0165    1.3627    0.0095 C.ar      1 <0>        -0.0871
      2 C2          1.1654    2.0924    0.0022 C.ar      1 <0>        -0.1104
      3 C3          2.3861    1.4540   -0.0134 C.ar      1 <0>        -0.0543
      4 C4          2.4294    0.0605   -0.0213 C.ar      1 <0>        -0.1252
      5 C5          1.2244   -0.6786   -0.0133 C.ar      1 <0>        -0.0597
      6 C6          0.0021   -0.0041    0.0020 C.ar      1 <0>        -0.0979
      7 C7          1.3000   -2.1396   -0.0224 C.2       1 <0>         0.1353
      8 N1          2.4575   -2.7306   -0.0371 N.2       1 <0>        -0.2191
      9 N2          3.6626   -2.0276   -0.0452 N.am      1 <0>        -0.5321
     10 C8          3.6977   -0.6787   -0.0384 C.2       1 <0>         0.5284
     11 O1          4.7616   -0.0856   -0.0461 O.2       1 <0>        -0.5201
     12 C9          0.0356   -2.9595   -0.0143 C.3       1 <0>        -0.0164
     13 C10         0.3870   -4.4249   -0.0262 C.ar      1 <0>        -0.0776
     14 C11         0.5414   -5.0879   -1.2299 C.ar      1 <0>        -0.0573
     15 C12         0.8633   -6.4324   -1.2458 C.ar      1 <0>        -0.1414
     16 C13         1.0319   -7.1181   -0.0563 C.ar      1 <0>         0.1224
     17 C14         0.8776   -6.4532    1.1546 C.ar      1 <0>         0.0756
     18 C15         0.5599   -5.1023    1.1652 C.ar      1 <0>        -0.0534
     19 N3          1.0472   -7.1450    2.3632 N.am      1 <0>        -0.5294
     20 C16         2.2287   -7.2360    2.9862 C.2       1 <0>         0.5512
     21 O2          3.2674   -6.7472    2.5967 O.2       1 <0>        -0.4531
     22 C17         2.0620   -8.0454    4.2538 C.3       1 <0>        -0.1958
     23 C18         1.6240   -9.5067    4.1376 C.3       1 <0>        -0.0783
     24 C19         0.5635   -8.4101    4.2554 C.3       1 <0>        -0.1961
     25 C20         0.0398   -7.7638    2.9914 C.2       1 <0>         0.5531
     26 O3         -1.1093   -7.8024    2.6070 O.2       1 <0>        -0.4565
     27 F1          1.3456   -8.4321   -0.0715 F         1 <0>        -0.1304
     28 H1         -0.9631    1.8823    0.0259 H         1 <0>         0.1369
     29 H2          1.1269    3.1717    0.0083 H         1 <0>         0.1377
     30 H3          3.3010    2.0277   -0.0197 H         1 <0>         0.1437
     31 H4         -0.9242   -0.5594    0.0075 H         1 <0>         0.1421
     32 H5         -0.5398   -2.7311    0.8829 H         1 <0>         0.1098
     33 H6         -0.5578   -2.7210   -0.8970 H         1 <0>         0.1135
     34 H7          0.4098   -4.5544   -2.1596 H         1 <0>         0.1414
     35 H8          0.9829   -6.9476   -2.1874 H         1 <0>         0.1474
     36 H9          0.4437   -4.5819    2.1044 H         1 <0>         0.1354
     37 H10         2.5779   -7.6987    5.1493 H         1 <0>         0.1657
     38 H11         1.7407   -9.9906    3.1679 H         1 <0>         0.1092
     39 H12         1.7811  -10.1487    5.0043 H         1 <0>         0.1391
     40 H13        -0.0504   -8.3465    5.1538 H         1 <0>         0.1660
     41 H14         4.4973   -2.5216   -0.0562 H         1 <0>         0.4376
@<TRIPOS>BOND
     1    1    6 ar
     2    1    2 ar
     3    1   28 1
     4    2    3 ar
     5    2   29 1
     6    3    4 ar
     7    3   30 1
     8    4   10 1
     9    4    5 ar
    10    5    6 ar
    11    5    7 1
    12    6   31 1
    13    7    8 2
    14    7   12 1
    15    8    9 1
    16    9   10 am
    17    9   41 1
    18   10   11 2
    19   12   13 1
    20   12   32 1
    21   12   33 1
    22   13   18 ar
    23   13   14 ar
    24   14   15 ar
    25   14   34 1
    26   15   16 ar
    27   15   35 1
    28   16   17 ar
    29   16   27 1
    30   17   18 ar
    31   17   19 1
    32   18   36 1
    33   19   25 am
    34   19   20 am
    35   20   21 2
    36   20   22 1
    37   22   24 1
    38   22   23 1
    39   22   37 1
    40   23   24 1
    41   23   38 1
    42   23   39 1
    43   24   25 1
    44   24   40 1
    45   25   26 2
@<TRIPOS>MOLECULE
CHEMBL594312
   49    52     0     0     0
SMALL
USER_CHARGES

@<TRIPOS>ATOM
      1 C1         -0.0178    1.4608    0.0101 C.3       1 <0>         0.0657
      2 N1          0.0021   -0.0041    0.0020 N.am      1 <0>        -0.5971
      3 C2          0.0241   -0.7433    1.2666 C.3       1 <0>         0.1531
      4 C3         -1.3889   -1.0161    1.7137 C.ar      1 <0>        -0.1214
      5 C4         -2.0462   -0.1038    2.5186 C.ar      1 <0>        -0.0809
      6 C5         -3.3413   -0.3508    2.9301 C.ar      1 <0>        -0.1063
      7 C6         -3.9835   -1.5168    2.5342 C.ar      1 <0>         0.1565
      8 C7         -3.3208   -2.4308    1.7255 C.ar      1 <0>        -0.1367
      9 C8         -2.0275   -2.1756    1.3135 C.ar      1 <0>        -0.0729
     10 N2         -5.2966   -1.7706    2.9501 N.pl3     1 <0>        -0.2827
     11 C9         -6.0078   -2.8632    2.6325 C.2       1 <0>         0.0840
     12 C10        -7.2515   -2.7471    3.2290 C.ar      1 <0>        -0.2051
     13 C11        -8.4119   -3.5441    3.2705 C.ar      1 <0>        -0.0070
     14 C12        -9.5047   -3.1371    3.9674 C.ar      1 <0>        -0.1669
     15 C13        -9.5426   -1.9368    4.6657 C.ar      1 <0>        -0.0187
     16 C14        -8.4528   -1.0804    4.6880 C.ar      1 <0>        -0.1265
     17 C15        -7.2434   -1.4657    3.9537 C.ar      1 <0>         0.1438
     18 N3         -6.0596   -0.9248    3.7637 N.2       1 <0>        -0.2648
     19 C16        -8.5085    0.1881    5.4321 C.2       1 <0>         0.5628
     20 O1         -7.5444    0.9298    5.4428 O.2       1 <0>        -0.5268
     21 N4         -9.6277    0.5280    6.1016 N.am      1 <0>        -0.8525
     22 C17         0.0001   -0.6716   -1.1688 C.2       1 <0>         0.5223
     23 O2          0.0165   -1.8843   -1.1755 O.2       1 <0>        -0.5156
     24 C18        -0.0226    0.0888   -2.4697 C.3       1 <0>        -0.1684
     25 C19        -1.4324    0.5249   -2.9079 C.3       1 <0>         0.0231
     26 N5         -1.0266    0.1185   -4.2715 N.4       1 <0>        -0.5337
     27 C20        -0.0221   -0.8150   -3.7158 C.3       1 <0>         0.0311
     28 H1          1.0048    1.8381    0.0023 H         1 <0>         0.0724
     29 H2         -0.5450    1.8219   -0.8730 H         1 <0>         0.0671
     30 H3         -0.5280    1.8123    0.9069 H         1 <0>         0.0872
     31 H4          0.5496   -1.6879    1.1262 H         1 <0>         0.1027
     32 H5          0.5371   -0.1514    2.0246 H         1 <0>         0.0996
     33 H6         -1.5462    0.8028    2.8261 H         1 <0>         0.1350
     34 H7         -3.8538    0.3617    3.5592 H         1 <0>         0.1470
     35 H8         -3.8176   -3.3384    1.4160 H         1 <0>         0.1348
     36 H9         -1.5129   -2.8842    0.6815 H         1 <0>         0.1399
     37 H10        -5.6700   -3.6865    2.0205 H         1 <0>         0.1912
     38 H11        -8.4333   -4.4865    2.7436 H         1 <0>         0.1328
     39 H12       -10.3786   -3.7716    3.9788 H         1 <0>         0.1354
     40 H13       -10.4398   -1.6651    5.2020 H         1 <0>         0.1371
     41 H14       -10.3965   -0.0635    6.0931 H         1 <0>         0.4000
     42 H15        -9.6645    1.3641    6.5920 H         1 <0>         0.4076
     43 H16         0.7173    0.8883   -2.5074 H         1 <0>         0.1542
     44 H17        -2.2315   -0.0855   -2.4873 H         1 <0>         0.1561
     45 H18        -1.6132    1.5948   -2.8041 H         1 <0>         0.1515
     46 H19        -1.7624   -0.3507   -4.7779 H         1 <0>         0.4312
     47 H20         0.9238   -0.8157   -4.2574 H         1 <0>         0.1509
     48 H21        -0.4087   -1.8173   -3.5314 H         1 <0>         0.1653
     49 H22        -0.6135    0.8720   -4.8004 H         1 <0>         0.4428
@<TRIPOS>BOND
     1    1    2 1
     2    1   28 1
     3    1   29 1
     4    1   30 1
     5    2    3 1
     6    2   22 am
     7    3    4 1
     8    3   31 1
     9    3   32 1
    10    4    9 ar
    11    4    5 ar
    12    5    6 ar
    13    5   33 1
    14    6    7 ar
    15    6   34 1
    16    7    8 ar
    17    7   10 1
    18    8    9 ar
    19    8   35 1
    20    9   36 1
    21   10   18 1
    22   10   11 1
    23   11   12 2
    24   11   37 1
    25   12   17 ar
    26   12   13 ar
    27   13   14 ar
    28   13   38 1
    29   14   15 ar
    30   14   39 1
    31   15   16 ar
    32   15   40 1
    33   16   17 ar
    34   16   19 1
    35   17   18 2
    36   19   20 2
    37   19   21 am
    38   21   41 1
    39   21   42 1
    40   22   23 2
    41   22   24 1
    42   24   27 1
    43   24   25 1
    44   24   43 1
    45   25   26 1
    46   25   44 1
    47   25   45 1
    48   26   27 1
    49   26   46 1
    50   26   49 1
    51   27   47 1
    52   27   48 1
@<TRIPOS>MOLECULE
CHEMBL593379
   55    58     0     0     0
SMALL
USER_CHARGES

@<TRIPOS>ATOM
      1 C1         -0.0178    1.4648    0.0101 C.3       1 <0>        -0.0448
      2 N1          0.0021   -0.0041    0.0020 N.4       1 <0>        -0.3865
      3 C2         -1.3756   -0.5106    0.0035 C.3       1 <0>        -0.0095
      4 C3         -1.3615   -2.0381   -0.0867 C.3       1 <0>        -0.1504
      5 C4         -0.6051   -2.6081    1.1167 C.3       1 <0>        -0.1292
      6 C5          0.8066   -2.0155    1.1472 C.3       1 <0>        -0.1366
      7 C6          0.7122   -0.4888    1.1916 C.3       1 <0>         0.0154
      8 C7          1.5564   -2.4375   -0.0901 C.2       1 <0>         0.5146
      9 O1          1.9779   -1.5996   -0.8590 O.2       1 <0>        -0.5552
     10 N2          1.7584   -3.7459   -0.3422 N.am      1 <0>        -0.7042
     11 C8          2.4873   -4.1562   -1.5450 C.3       1 <0>         0.1598
     12 C9          2.5751   -5.6599   -1.5907 C.ar      1 <0>        -0.1287
     13 C10         3.6429   -6.3071   -0.9964 C.ar      1 <0>        -0.0732
     14 C11         3.7263   -7.6851   -1.0366 C.ar      1 <0>        -0.1056
     15 C12         2.7360   -8.4209   -1.6743 C.ar      1 <0>         0.1646
     16 C13         1.6647   -7.7680   -2.2698 C.ar      1 <0>        -0.1353
     17 C14         1.5847   -6.3900   -2.2219 C.ar      1 <0>        -0.0729
     18 N3          2.8179   -9.8184   -1.7172 N.pl3     1 <0>        -0.2851
     19 C15         1.9232  -10.6247   -2.3088 C.2       1 <0>         0.0852
     20 C16         2.3511  -11.9300   -2.1374 C.ar      1 <0>        -0.2041
     21 C17         1.8600  -13.1944   -2.5159 C.ar      1 <0>        -0.0068
     22 C18         2.5353  -14.3254   -2.1835 C.ar      1 <0>        -0.1665
     23 C19         3.7247  -14.3032   -1.4662 C.ar      1 <0>        -0.0182
     24 C20         4.2920  -13.1101   -1.0465 C.ar      1 <0>        -0.1264
     25 C21         3.6086  -11.8551   -1.3756 C.ar      1 <0>         0.1448
     26 N4          3.8481  -10.5808   -1.1545 N.2       1 <0>        -0.2641
     27 C22         5.5524  -13.1031   -0.2868 C.2       1 <0>         0.5627
     28 O2          6.0386  -12.0483    0.0750 O.2       1 <0>        -0.5266
     29 N5          6.1680  -14.2652    0.0080 N.am      1 <0>        -0.8524
     30 H1          1.0047    1.8421    0.0024 H         1 <0>         0.1240
     31 H2         -0.5450    1.8259   -0.8730 H         1 <0>         0.1229
     32 H3         -0.5280    1.8163    0.9069 H         1 <0>         0.1205
     33 H4         -1.8732   -0.2060    0.9241 H         1 <0>         0.1301
     34 H5         -1.9135   -0.1015   -0.8518 H         1 <0>         0.1311
     35 H6         -2.3852   -2.4123   -0.0837 H         1 <0>         0.1184
     36 H7         -0.8642   -2.3438   -1.0072 H         1 <0>         0.0847
     37 H8         -1.1305   -2.3457    2.0350 H         1 <0>         0.1000
     38 H9         -0.5433   -3.6927    1.0279 H         1 <0>         0.0978
     39 H10         1.3327   -2.3735    2.0321 H         1 <0>         0.1459
     40 H11         1.7157   -0.0637    1.2136 H         1 <0>         0.1363
     41 H12         0.1701   -0.1847    2.0870 H         1 <0>         0.1378
     42 H13         1.4213   -4.4160    0.2728 H         1 <0>         0.4106
     43 H14         1.9613   -3.7959   -2.4291 H         1 <0>         0.0866
     44 H15         3.4920   -3.7341   -1.5227 H         1 <0>         0.0886
     45 H16         4.4127   -5.7344   -0.5006 H         1 <0>         0.1376
     46 H17         4.5608   -8.1899   -0.5729 H         1 <0>         0.1494
     47 H18         0.8930   -8.3373   -2.7664 H         1 <0>         0.1382
     48 H19         0.7499   -5.8819   -2.6816 H         1 <0>         0.1365
     49 H20         1.0288  -10.3112   -2.8265 H         1 <0>         0.1923
     50 H21         0.9386  -13.2657   -3.0747 H         1 <0>         0.1333
     51 H22         2.1314  -15.2793   -2.4888 H         1 <0>         0.1356
     52 H23         4.2174  -15.2349   -1.2303 H         1 <0>         0.1372
     53 H24         5.7802  -15.1062   -0.2805 H         1 <0>         0.4000
     54 H25         6.9987  -14.2606    0.5088 H         1 <0>         0.4076
     55 H26         0.4767   -0.3284   -0.8272 H         1 <0>         0.4318
@<TRIPOS>BOND
     1    1    2 1
     2    1   30 1
     3    1   31 1
     4    1   32 1
     5    2    7 1
     6    2    3 1
     7    2   55 1
     8    3    4 1
     9    3   33 1
    10    3   34 1
    11    4    5 1
    12    4   35 1
    13    4   36 1
    14    5    6 1
    15    5   37 1
    16    5   38 1
    17    6    7 1
    18    6    8 1
    19    6   39 1
    20    7   40 1
    21    7   41 1
    22    8    9 2
    23    8   10 am
    24   10   11 1
    25   10   42 1
    26   11   12 1
    27   11   43 1
    28   11   44 1
    29   12   17 ar
    30   12   13 ar
    31   13   14 ar
    32   13   45 1
    33   14   15 ar
    34   14   46 1
    35   15   16 ar
    36   15   18 1
    37   16   17 ar
    38   16   47 1
    39   17   48 1
    40   18   26 1
    41   18   19 1
    42   19   20 2
    43   19   49 1
    44   20   25 ar
    45   20   21 ar
    46   21   22 ar
    47   21   50 1
    48   22   23 ar
    49   22   51 1
    50   23   24 ar
    51   23   52 1
    52   24   25 ar
    53   24   27 1
    54   25   26 2
    55   27   28 2
    56   27   29 am
    57   29   53 1
    58   29   54 1
@<TRIPOS>MOLECULE
CHEMBL593379__1
   55    58     0     0     0
SMALL
USER_CHARGES

@<TRIPOS>ATOM
      1 C1         -0.0178    1.4648    0.0101 C.3       1 <0>        -0.0462
      2 N1          0.0021   -0.0041    0.0020 N.4       1 <0>        -0.3839
      3 C2         -1.3756   -0.5106    0.0035 C.3       1 <0>        -0.0111
      4 C3         -1.3615   -2.0381   -0.0867 C.3       1 <0>        -0.1436
      5 C4         -0.6051   -2.6081    1.1167 C.3       1 <0>        -0.1319
      6 C5          0.8066   -2.0155    1.1472 C.3       1 <0>        -0.1317
      7 C6          0.7122   -0.4888    1.1916 C.3       1 <0>         0.0100
      8 C7          1.5339   -2.5105    2.3707 C.2       1 <0>         0.5228
      9 O1          1.9409   -1.7200    3.1956 O.2       1 <0>        -0.5282
     10 N2          1.7321   -3.8317    2.5484 N.am      1 <0>        -0.7146
     11 C8          2.4391   -4.3130    3.7378 C.3       1 <0>         0.1620
     12 C9          2.5268   -5.8169    3.6959 C.ar      1 <0>        -0.1242
     13 C10         1.5226   -6.5826    4.2595 C.ar      1 <0>        -0.0748
     14 C11         1.6001   -7.9610    4.2227 C.ar      1 <0>        -0.1060
     15 C12         2.6877   -8.5780    3.6185 C.ar      1 <0>         0.1613
     16 C13         3.6942   -7.8062    3.0530 C.ar      1 <0>        -0.1346
     17 C14         3.6085   -6.4282    3.0888 C.ar      1 <0>        -0.0731
     18 N3          2.7695   -9.9757    3.5799 N.pl3     1 <0>        -0.2837
     19 C15         3.7741  -10.6737    3.0286 C.2       1 <0>         0.0859
     20 C16         3.4932  -12.0195    3.1900 C.ar      1 <0>        -0.2053
     21 C17         4.1412  -13.2191    2.8374 C.ar      1 <0>        -0.0058
     22 C18         3.5878  -14.4202    3.1482 C.ar      1 <0>        -0.1677
     23 C19         2.3762  -14.5350    3.8176 C.ar      1 <0>        -0.0182
     24 C20         1.6590  -13.4150    4.2088 C.ar      1 <0>        -0.1270
     25 C21         2.2060  -12.0898    3.9010 C.ar      1 <0>         0.1444
     26 N4          1.8183  -10.8515    4.1162 N.2       1 <0>        -0.2649
     27 C22         0.3764  -13.5531    4.9170 C.2       1 <0>         0.5629
     28 O2         -0.2421  -12.5613    5.2541 O.2       1 <0>        -0.5269
     29 N5         -0.1131  -14.7783    5.1920 N.am      1 <0>        -0.8527
     30 H1          1.0047    1.8421    0.0024 H         1 <0>         0.1255
     31 H2         -0.5450    1.8259   -0.8730 H         1 <0>         0.1261
     32 H3         -0.5280    1.8163    0.9069 H         1 <0>         0.1233
     33 H4         -1.8732   -0.2060    0.9241 H         1 <0>         0.1305
     34 H5         -1.9135   -0.1015   -0.8518 H         1 <0>         0.1343
     35 H6         -2.3852   -2.4123   -0.0837 H         1 <0>         0.1185
     36 H7         -0.8642   -2.3438   -1.0072 H         1 <0>         0.0916
     37 H8         -1.1305   -2.3457    2.0350 H         1 <0>         0.0904
     38 H9         -0.5433   -3.6927    1.0279 H         1 <0>         0.0993
     39 H10         1.3489   -2.3207    0.2523 H         1 <0>         0.1214
     40 H11         1.7157   -0.0637    1.2136 H         1 <0>         0.1397
     41 H12         0.1701   -0.1847    2.0870 H         1 <0>         0.1381
     42 H13         1.4066   -4.4640    1.8887 H         1 <0>         0.4057
     43 H14         3.4438   -3.8909    3.7589 H         1 <0>         0.0860
     44 H15         1.8969   -4.0055    4.6320 H         1 <0>         0.0861
     45 H16         0.6771   -6.1021    4.7292 H         1 <0>         0.1370
     46 H17         0.8159   -8.5584    4.6637 H         1 <0>         0.1485
     47 H18         4.5413   -8.2831    2.5824 H         1 <0>         0.1379
     48 H19         4.3891   -5.8275    2.6459 H         1 <0>         0.1378
     49 H20         4.6464  -10.2593    2.5450 H         1 <0>         0.1924
     50 H21         5.0860  -13.1838    2.3152 H         1 <0>         0.1332
     51 H22         4.1104  -15.3213    2.8631 H         1 <0>         0.1353
     52 H23         1.9846  -15.5172    4.0377 H         1 <0>         0.1368
     53 H24         0.3800  -15.5692    4.9231 H         1 <0>         0.3999
     54 H25        -0.9585  -14.8693    5.6588 H         1 <0>         0.4074
     55 H26         0.4767   -0.3284   -0.8272 H         1 <0>         0.4241
@<TRIPOS>BOND
     1    1    2 1
     2    1   30 1
     3    1   31 1
     4    1   32 1
     5    2    7 1
     6    2    3 1
     7    2   55 1
     8    3    4 1
     9    3   33 1
    10    3   34 1
    11    4    5 1
    12    4   35 1
    13    4   36 1
    14    5    6 1
    15    5   37 1
    16    5   38 1
    17    6    7 1
    18    6    8 1
    19    6   39 1
    20    7   40 1
    21    7   41 1
    22    8    9 2
    23    8   10 am
    24   10   11 1
    25   10   42 1
    26   11   12 1
    27   11   43 1
    28   11   44 1
    29   12   17 ar
    30   12   13 ar
    31   13   14 ar
    32   13   45 1
    33   14   15 ar
    34   14   46 1
    35   15   16 ar
    36   15   18 1
    37   16   17 ar
    38   16   47 1
    39   17   48 1
    40   18   26 1
    41   18   19 1
    42   19   20 2
    43   19   49 1
    44   20   25 ar
    45   20   21 ar
    46   21   22 ar
    47   21   50 1
    48   22   23 ar
    49   22   51 1
    50   23   24 ar
    51   23   52 1
    52   24   25 ar
    53   24   27 1
    54   25   26 2
    55   27   28 2
    56   27   29 am
    57   29   53 1
    58   29   54 1
@<TRIPOS>MOLECULE
CHEMBL364691
   50    54     0     0     0
SMALL
USER_CHARGES

@<TRIPOS>ATOM
      1 C1         -0.0165    1.3623    0.0095 C.ar      1 <0>        -0.0804
      2 C2          1.1656    2.0925    0.0022 C.ar      1 <0>        -0.1288
      3 C3          2.3870    1.4553   -0.0133 C.ar      1 <0>        -0.0469
      4 C4          2.4318    0.0617   -0.0212 C.ar      1 <0>        -0.1438
      5 C5          1.2259   -0.6785   -0.0132 C.ar      1 <0>         0.0184
      6 C6          0.0021   -0.0041    0.0020 C.ar      1 <0>        -0.1186
      7 C7          1.3033   -2.1362   -0.0212 C.2       1 <0>        -0.1396
      8 C8          2.5107   -2.7535   -0.0360 C.2       1 <0>         0.1483
      9 N1          3.6827   -2.0213   -0.0438 N.am      1 <0>        -0.6228
     10 C9          3.6985   -0.6769   -0.0372 C.2       1 <0>         0.5560
     11 O1          4.7579   -0.0764   -0.0449 O.2       1 <0>        -0.5201
     12 C10         2.3211   -4.2234   -0.0409 C.ar      1 <0>        -0.0116
     13 C11         3.2472   -5.2707   -0.0544 C.ar      1 <0>        -0.1121
     14 C12         2.8055   -6.5771   -0.0557 C.ar      1 <0>        -0.0158
     15 C13         1.4503   -6.8565   -0.0441 C.ar      1 <0>        -0.6684
     16 C14         0.5274   -5.8245   -0.0307 C.ar      1 <0>         0.0023
     17 C15         0.9587   -4.5168   -0.0289 C.ar      1 <0>        -0.0970
     18 C16         0.2286   -3.1970   -0.0156 C.3       1 <0>        -0.0321
     19 S1          0.8978   -8.5296   -0.0471 S.o2      1 <0>         2.6972
     20 O2         -0.4173   -8.5222   -0.5853 O.2       1 <0>        -0.9492
     21 O3          1.9477   -9.3030   -0.6117 O.2       1 <0>        -0.9503
     22 N2          0.7594   -9.0023    1.5340 N.pl3     1 <0>        -1.1160
     23 C17        -0.2316   -8.3653    2.4049 C.3       1 <0>         0.1171
     24 C18        -0.4190   -9.2096    3.6670 C.3       1 <0>        -0.1445
     25 C19        -1.4539   -8.5443    4.5766 C.3       1 <0>         0.1054
     26 N3         -1.6334   -9.3527    5.7851 N.pl3     1 <0>        -0.4613
     27 C20        -2.5317  -10.3715    5.9548 C.2       1 <0>        -0.0563
     28 C21        -2.3594  -10.8384    7.2062 C.2       1 <0>        -0.0283
     29 N4         -1.3825  -10.1243    7.7847 N.2       1 <0>        -0.4945
     30 C22        -0.9395   -9.2358    6.9377 C.2       1 <0>         0.1809
     31 H1         -0.9631    1.8819    0.0259 H         1 <0>         0.1331
     32 H2          1.1265    3.1718    0.0083 H         1 <0>         0.1348
     33 H3          3.3013    2.0300   -0.0197 H         1 <0>         0.1416
     34 H4         -0.9240   -0.5597    0.0082 H         1 <0>         0.1356
     35 H5          4.3058   -5.0571   -0.0642 H         1 <0>         0.1364
     36 H6          3.5209   -7.3861   -0.0661 H         1 <0>         0.1488
     37 H7         -0.5298   -6.0450   -0.0221 H         1 <0>         0.1495
     38 H8         -0.3795   -3.1121    0.8850 H         1 <0>         0.1140
     39 H9         -0.3970   -3.1038   -0.9033 H         1 <0>         0.1148
     40 H10         1.3344   -9.7010    1.8834 H         1 <0>         0.4223
     41 H11         0.1148   -7.3696    2.6819 H         1 <0>         0.0716
     42 H12        -1.1817   -8.2856    1.8767 H         1 <0>         0.0873
     43 H13        -0.7654  -10.2053    3.3900 H         1 <0>         0.0837
     44 H14         0.5311   -9.2893    4.1953 H         1 <0>         0.0818
     45 H15        -1.1075   -7.5486    4.8536 H         1 <0>         0.0988
     46 H16        -2.4040   -8.4646    4.0484 H         1 <0>         0.0983
     47 H17        -3.2423  -10.7314    5.2255 H         1 <0>         0.1747
     48 H18        -2.9111  -11.6464    7.6636 H         1 <0>         0.1698
     49 H19        -0.1504   -8.5234    7.1280 H         1 <0>         0.2035
     50 H20         4.5282   -2.4965   -0.0543 H         1 <0>         0.4125
@<TRIPOS>BOND
     1    1    6 ar
     2    1    2 ar
     3    1   31 1
     4    2    3 ar
     5    2   32 1
     6    3    4 ar
     7    3   33 1
     8    4   10 1
     9    4    5 ar
    10    5    6 ar
    11    5    7 1
    12    6   34 1
    13    7   18 1
    14    7    8 2
    15    8    9 1
    16    8   12 1
    17    9   10 am
    18    9   50 1
    19   10   11 2
    20   12   17 ar
    21   12   13 ar
    22   13   14 ar
    23   13   35 1
    24   14   15 ar
    25   14   36 1
    26   15   16 ar
    27   15   19 1
    28   16   17 ar
    29   16   37 1
    30   17   18 1
    31   18   38 1
    32   18   39 1
    33   19   20 2
    34   19   21 2
    35   19   22 1
    36   22   23 1
    37   22   40 1
    38   23   24 1
    39   23   41 1
    40   23   42 1
    41   24   25 1
    42   24   43 1
    43   24   44 1
    44   25   26 1
    45   25   45 1
    46   25   46 1
    47   26   30 1
    48   26   27 1
    49   27   28 2
    50   27   47 1
    51   28   29 1
    52   28   48 1
    53   29   30 2
    54   30   49 1
@<TRIPOS>MOLECULE
CHEMBL364691__1
   51    55     0     0     0
SMALL
USER_CHARGES

@<TRIPOS>ATOM
      1 C1         -0.0165    1.3623    0.0095 C.ar      1 <0>        -0.0799
      2 C2          1.1656    2.0925    0.0022 C.ar      1 <0>        -0.1256
      3 C3          2.3870    1.4553   -0.0133 C.ar      1 <0>        -0.0466
      4 C4          2.4318    0.0617   -0.0212 C.ar      1 <0>        -0.1420
      5 C5          1.2259   -0.6785   -0.0132 C.ar      1 <0>         0.0144
      6 C6          0.0021   -0.0041    0.0020 C.ar      1 <0>        -0.1185
      7 C7          1.3033   -2.1362   -0.0212 C.2       1 <0>        -0.1360
      8 C8          2.5107   -2.7535   -0.0360 C.2       1 <0>         0.1441
      9 N1          3.6827   -2.0213   -0.0438 N.am      1 <0>        -0.6239
     10 C9          3.6985   -0.6769   -0.0372 C.2       1 <0>         0.5555
     11 O1          4.7579   -0.0764   -0.0449 O.2       1 <0>        -0.5159
     12 C10         2.3211   -4.2234   -0.0409 C.ar      1 <0>        -0.0059
     13 C11         3.2472   -5.2707   -0.0544 C.ar      1 <0>        -0.1119
     14 C12         2.8055   -6.5771   -0.0557 C.ar      1 <0>        -0.0155
     15 C13         1.4503   -6.8565   -0.0441 C.ar      1 <0>        -0.6727
     16 C14         0.5274   -5.8245   -0.0307 C.ar      1 <0>         0.0005
     17 C15         0.9587   -4.5168   -0.0289 C.ar      1 <0>        -0.0979
     18 C16         0.2286   -3.1970   -0.0156 C.3       1 <0>        -0.0321
     19 S1          0.8978   -8.5296   -0.0471 S.o2      1 <0>         2.6966
     20 O2         -0.4173   -8.5222   -0.5853 O.2       1 <0>        -0.9462
     21 O3          1.9477   -9.3030   -0.6117 O.2       1 <0>        -0.9437
     22 N2          0.7594   -9.0023    1.5340 N.pl3     1 <0>        -1.1191
     23 C17        -0.2316   -8.3653    2.4049 C.3       1 <0>         0.1168
     24 C18        -0.4190   -9.2096    3.6670 C.3       1 <0>        -0.1507
     25 C19        -1.4539   -8.5443    4.5766 C.3       1 <0>         0.0915
     26 N3         -1.6334   -9.3527    5.7851 N.pl3     1 <0>        -0.4088
     27 C20        -2.5314  -10.3718    5.9547 C.2       1 <0>         0.0264
     28 C21        -2.3592  -10.8386    7.2061 C.2       1 <0>         0.0046
     29 N4         -1.3828  -10.1241    7.7848 N.pl3     1 <0>        -0.4758
     30 C22        -0.9398   -9.2355    6.9379 C.cat     1 <0>         0.2878
     31 H1         -0.9631    1.8819    0.0259 H         1 <0>         0.1341
     32 H2          1.1265    3.1718    0.0083 H         1 <0>         0.1364
     33 H3          3.3013    2.0300   -0.0197 H         1 <0>         0.1429
     34 H4         -0.9240   -0.5597    0.0082 H         1 <0>         0.1350
     35 H5          4.3058   -5.0571   -0.0642 H         1 <0>         0.1378
     36 H6          3.5209   -7.3861   -0.0661 H         1 <0>         0.1489
     37 H7         -0.5298   -6.0450   -0.0221 H         1 <0>         0.1485
     38 H8         -0.3795   -3.1121    0.8850 H         1 <0>         0.1128
     39 H9         -0.3970   -3.1038   -0.9033 H         1 <0>         0.1160
     40 H10         1.3344   -9.7010    1.8834 H         1 <0>         0.4223
     41 H11         0.1148   -7.3696    2.6819 H         1 <0>         0.0767
     42 H12        -1.1817   -8.2856    1.8767 H         1 <0>         0.0927
     43 H13        -0.7654  -10.2053    3.3900 H         1 <0>         0.0933
     44 H14         0.5311   -9.2893    4.1953 H         1 <0>         0.0887
     45 H15        -1.1075   -7.5486    4.8536 H         1 <0>         0.1265
     46 H16        -2.4040   -8.4646    4.0484 H         1 <0>         0.1310
     47 H17        -3.2417  -10.7320    5.2252 H         1 <0>         0.2242
     48 H18        -2.9107  -11.6467    7.6635 H         1 <0>         0.2243
     49 H19        -0.1510   -8.5228    7.1283 H         1 <0>         0.2599
     50 H20         4.5282   -2.4965   -0.0543 H         1 <0>         0.4126
     51 H21        -1.0549  -10.2504    8.6890 H         1 <0>         0.4659
@<TRIPOS>BOND
     1    1    6 ar
     2    1    2 ar
     3    1   31 1
     4    2    3 ar
     5    2   32 1
     6    3    4 ar
     7    3   33 1
     8    4   10 1
     9    4    5 ar
    10    5    6 ar
    11    5    7 1
    12    6   34 1
    13    7   18 1
    14    7    8 2
    15    8    9 1
    16    8   12 1
    17    9   10 am
    18    9   50 1
    19   10   11 2
    20   12   17 ar
    21   12   13 ar
    22   13   14 ar
    23   13   35 1
    24   14   15 ar
    25   14   36 1
    26   15   16 ar
    27   15   19 1
    28   16   17 ar
    29   16   37 1
    30   17   18 1
    31   18   38 1
    32   18   39 1
    33   19   20 2
    34   19   21 2
    35   19   22 1
    36   22   23 1
    37   22   40 1
    38   23   24 1
    39   23   41 1
    40   23   42 1
    41   24   25 1
    42   24   43 1
    43   24   44 1
    44   25   26 1
    45   25   45 1
    46   25   46 1
    47   26   30 1
    48   26   27 1
    49   27   28 2
    50   27   47 1
    51   28   29 1
    52   28   48 1
    53   29   30 2
    54   29   51 1
    55   30   49 1
@<TRIPOS>MOLECULE
CHEMBL495483
   63    67     0     0     0
SMALL
USER_CHARGES

@<TRIPOS>ATOM
      1 C1         -0.5248    0.7672   -0.1643 C.ar      1 <0>        -0.0829
      2 C2          0.6456    1.4394   -0.4628 C.ar      1 <0>        -0.1126
      3 C3          1.8405    0.7481   -0.5350 C.ar      1 <0>        -0.0934
      4 C4          1.8651   -0.6152   -0.3081 C.ar      1 <0>        -0.1643
      5 C5          0.6948   -1.2873   -0.0086 C.ar      1 <0>        -0.0980
      6 C6         -0.5003   -0.5963    0.0621 C.ar      1 <0>        -0.1120
      7 C7          3.1676   -1.3690   -0.3877 C.3       1 <0>         0.0371
      8 N1          3.8055   -1.3856    0.9355 N.4       1 <0>        -0.3648
      9 C8          5.1659   -1.8970    0.7851 C.3       1 <0>        -0.0082
     10 C9          6.0481   -1.2912    1.8541 C.3       1 <0>        -0.1581
     11 C10         6.0992   -2.2331    3.0708 C.3       1 <0>         0.0846
     12 N2          4.7737   -2.8267    3.3389 N.am      1 <0>        -0.6230
     13 C11         3.5488   -2.0583    3.2546 C.3       1 <0>         0.0991
     14 C12         2.9853   -2.1251    1.8164 C.3       1 <0>        -0.0498
     15 C13         4.7013   -4.1302    3.6736 C.2       1 <0>         0.5634
     16 O1          3.6286   -4.6258    3.9587 O.2       1 <0>        -0.5080
     17 C14         5.9265   -4.9574    3.6939 C.ar      1 <0>        -0.1422
     18 C15         7.0787   -4.4882    4.3271 C.ar      1 <0>        -0.0922
     19 C16         8.2183   -5.2652    4.3428 C.ar      1 <0>        -0.1165
     20 C17         8.2212   -6.5071    3.7324 C.ar      1 <0>        -0.0719
     21 C18         7.0827   -6.9779    3.1031 C.ar      1 <0>        -0.0720
     22 C19         5.9344   -6.2132    3.0851 C.ar      1 <0>        -0.0516
     23 C20         7.0952   -8.3314    2.4404 C.3       1 <0>        -0.0197
     24 C21         6.6750   -9.3819    3.4358 C.2       1 <0>         0.1355
     25 C22         6.6129  -10.7872    3.0337 C.ar      1 <0>        -0.0635
     26 C23         6.9348  -11.1981    1.7388 C.ar      1 <0>        -0.0991
     27 C24         6.8616  -12.5232    1.4115 C.ar      1 <0>        -0.0863
     28 C25         6.4705  -13.4695    2.3500 C.ar      1 <0>        -0.1075
     29 C26         6.1466  -13.0934    3.6351 C.ar      1 <0>        -0.0531
     30 C27         6.2148  -11.7473    3.9919 C.ar      1 <0>        -0.1246
     31 C28         5.8836  -11.2829    5.3447 C.2       1 <0>         0.5283
     32 O2          5.5361  -12.0728    6.2043 O.2       1 <0>        -0.5148
     33 N3          5.9720   -9.9644    5.6178 N.am      1 <0>        -0.5336
     34 H1          5.7545   -9.6514    6.5098 H         1 <0>         0.4370
     35 N4          6.3730   -9.0401    4.6529 N.2       1 <0>        -0.2227
     36 H2         -1.4577    1.3080   -0.1035 H         1 <0>         0.1364
     37 H3          0.6264    2.5046   -0.6400 H         1 <0>         0.1366
     38 H4          2.7549    1.2732   -0.7689 H         1 <0>         0.1315
     39 H5          0.7140   -2.3525    0.1682 H         1 <0>         0.1314
     40 H6         -1.4147   -1.1214    0.2957 H         1 <0>         0.1368
     41 H7          2.9762   -2.3920   -0.7116 H         1 <0>         0.1354
     42 H8          3.8279   -0.8789   -1.1032 H         1 <0>         0.1390
     43 H9          5.1604   -2.9820    0.8896 H         1 <0>         0.1305
     44 H10         5.5493   -1.6275   -0.1990 H         1 <0>         0.1380
     45 H11         7.0546   -1.1526    1.4592 H         1 <0>         0.1274
     46 H12         5.6409   -0.3268    2.1579 H         1 <0>         0.0901
     47 H13         6.8156   -3.0310    2.8756 H         1 <0>         0.1143
     48 H14         6.4225   -1.6696    3.9461 H         1 <0>         0.0898
     49 H15         2.8158   -2.4675    3.9499 H         1 <0>         0.1292
     50 H16         3.7538   -1.0200    3.5155 H         1 <0>         0.0997
     51 H17         1.9770   -1.7112    1.8040 H         1 <0>         0.1460
     52 H18         2.9505   -3.1645    1.4902 H         1 <0>         0.1303
     53 H19         7.0779   -3.5189    4.8033 H         1 <0>         0.1290
     54 H20         9.1104   -4.9034    4.8324 H         1 <0>         0.1342
     55 H21         9.1163   -7.1112    3.7469 H         1 <0>         0.1311
     56 H22         5.0450   -6.5837    2.5971 H         1 <0>         0.1277
     57 H23         6.4023   -8.3303    1.5990 H         1 <0>         0.1069
     58 H24         8.1010   -8.5515    2.0826 H         1 <0>         0.1106
     59 H25         7.2397  -10.4725    0.9992 H         1 <0>         0.1402
     60 H26         7.1111  -12.8387    0.4092 H         1 <0>         0.1377
     61 H27         6.4194  -14.5111    2.0691 H         1 <0>         0.1396
     62 H28         5.8425  -13.8344    4.3595 H         1 <0>         0.1452
     63 H29         3.8602   -0.4362    1.2729 H         1 <0>         0.4167
@<TRIPOS>BOND
     1    1    6 ar
     2    1    2 ar
     3    1   36 1
     4    2    3 ar
     5    2   37 1
     6    3    4 ar
     7    3   38 1
     8    4    5 ar
     9    4    7 1
    10    5    6 ar
    11    5   39 1
    12    6   40 1
    13    7    8 1
    14    7   41 1
    15    7   42 1
    16    8   14 1
    17    8    9 1
    18    8   63 1
    19    9   10 1
    20    9   43 1
    21    9   44 1
    22   10   11 1
    23   10   45 1
    24   10   46 1
    25   11   12 1
    26   11   47 1
    27   11   48 1
    28   12   13 1
    29   12   15 am
    30   13   14 1
    31   13   49 1
    32   13   50 1
    33   14   51 1
    34   14   52 1
    35   15   16 2
    36   15   17 1
    37   17   22 ar
    38   17   18 ar
    39   18   19 ar
    40   18   53 1
    41   19   20 ar
    42   19   54 1
    43   20   21 ar
    44   20   55 1
    45   21   22 ar
    46   21   23 1
    47   22   56 1
    48   23   24 1
    49   23   57 1
    50   23   58 1
    51   24   35 2
    52   24   25 1
    53   25   30 ar
    54   25   26 ar
    55   26   27 ar
    56   26   59 1
    57   27   28 ar
    58   27   60 1
    59   28   29 ar
    60   28   61 1
    61   29   30 ar
    62   29   62 1
    63   30   31 1
    64   31   32 2
    65   31   33 am
    66   33   34 1
    67   33   35 1
@<TRIPOS>MOLECULE
CHEMBL539474
   36    39     0     0     0
SMALL
USER_CHARGES

@<TRIPOS>ATOM
      1 C1         -0.0163    1.3512    0.0095 C.2       1 <0>        -0.1915
      2 C2          1.3081    1.7995   -0.0008 C.2       1 <0>        -0.0865
      3 C3          2.1126    0.6813   -0.0144 C.2       1 <0>        -0.0745
      4 C4          3.5658    0.5029   -0.0288 C.2       1 <0>         0.5866
      5 O1          4.3019    1.4727   -0.0304 O.2       1 <0>        -0.5083
      6 N1          4.0837   -0.7415   -0.0400 N.am      1 <0>        -0.6527
      7 H1          5.0461   -0.8624   -0.0495 H         1 <0>         0.4211
      8 C5          3.2458   -1.8567   -0.0374 C.ar      1 <0>         0.1527
      9 C6          3.7976   -3.1323   -0.0485 C.ar      1 <0>        -0.1199
     10 C7          2.9753   -4.2410   -0.0461 C.ar      1 <0>        -0.0798
     11 C8          1.5997   -4.0887   -0.0323 C.ar      1 <0>        -0.0939
     12 C9          1.0413   -2.8259   -0.0213 C.ar      1 <0>        -0.0984
     13 C10         1.8600   -1.7046   -0.0235 C.ar      1 <0>         0.0948
     14 N2          1.2908   -0.4267   -0.0125 N.pl3     1 <0>        -0.3733
     15 C11         0.0021   -0.0041    0.0020 C.2       1 <0>         0.0305
     16 C12         3.5775   -5.6224   -0.0591 C.3       1 <0>         0.1651
     17 N3          3.7861   -6.0771    1.3178 N.am      1 <0>        -0.6177
     18 C13         5.0126   -5.8449    2.0897 C.3       1 <0>         0.1001
     19 C14         4.6249   -6.0939    3.5642 C.3       1 <0>        -0.1330
     20 C15         3.4242   -7.0570    3.4161 C.3       1 <0>        -0.1563
     21 C16         2.8767   -6.7557    2.0385 C.2       1 <0>         0.5182
     22 O2          1.7781   -7.0813    1.6411 O.2       1 <0>        -0.5270
     23 H2         -0.8981    1.9747    0.0252 H         1 <0>         0.1576
     24 H3          1.6379    2.8279    0.0013 H         1 <0>         0.1562
     25 H4          4.8704   -3.2562   -0.0593 H         1 <0>         0.1404
     26 H5          0.9614   -4.9598   -0.0306 H         1 <0>         0.1422
     27 H6         -0.0325   -2.7104   -0.0112 H         1 <0>         0.1403
     28 H7         -0.8682   -0.6436    0.0066 H         1 <0>         0.1757
     29 H8          2.9018   -6.3085   -0.5699 H         1 <0>         0.0986
     30 H9          4.5334   -5.5971   -0.5822 H         1 <0>         0.0940
     31 H10         5.7904   -6.5433    1.7811 H         1 <0>         0.0762
     32 H11         5.3527   -4.8178    1.9574 H         1 <0>         0.0781
     33 H12         5.4416   -6.5694    4.1073 H         1 <0>         0.0931
     34 H13         4.3232   -5.1661    4.0502 H         1 <0>         0.0821
     35 H14         3.7561   -8.0932    3.4807 H         1 <0>         0.1066
     36 H15         2.6718   -6.8483    4.1767 H         1 <0>         0.1027
@<TRIPOS>BOND
     1    1   15 2
     2    1    2 1
     3    1   23 1
     4    2    3 2
     5    2   24 1
     6    3   14 1
     7    3    4 1
     8    4    5 2
     9    4    6 am
    10    6    7 1
    11    6    8 1
    12    8   13 ar
    13    8    9 ar
    14    9   10 ar
    15    9   25 1
    16   10   11 ar
    17   10   16 1
    18   11   12 ar
    19   11   26 1
    20   12   13 ar
    21   12   27 1
    22   13   14 1
    23   14   15 1
    24   15   28 1
    25   16   17 1
    26   16   29 1
    27   16   30 1
    28   17   21 am
    29   17   18 1
    30   18   19 1
    31   18   31 1
    32   18   32 1
    33   19   20 1
    34   19   33 1
    35   19   34 1
    36   20   21 1
    37   20   35 1
    38   20   36 1
    39   21   22 2
@<TRIPOS>MOLECULE
CHEMBL248648
   54    58     0     0     0
SMALL
USER_CHARGES

@<TRIPOS>ATOM
      1 C1         -0.0167    1.3781    0.0096 C.ar      1 <0>        -0.1096
      2 C2          1.1709    2.0855    0.0021 C.ar      1 <0>        -0.1126
      3 C3          2.3773    1.4107   -0.0130 C.ar      1 <0>        -0.1096
      4 C4          2.3960    0.0285   -0.0201 C.ar      1 <0>        -0.0977
      5 C5          1.2084   -0.6789   -0.0117 C.ar      1 <0>        -0.1166
      6 C6          0.0021   -0.0041    0.0020 C.ar      1 <0>        -0.1146
      7 C7          3.7112   -0.7071   -0.0376 C.3       1 <0>        -0.0535
      8 C8          3.7885   -1.5882   -1.2877 C.3       1 <0>        -0.1394
      9 C9          5.0904   -2.3918   -1.2589 C.3       1 <0>        -0.0095
     10 N1          5.1211   -3.2377   -0.0597 N.4       1 <0>        -0.3801
     11 C10         5.1196   -2.3966    1.1432 C.3       1 <0>        -0.0086
     12 C11         3.8189   -1.5931    1.2068 C.3       1 <0>        -0.1392
     13 C12         6.3355   -4.0641   -0.0761 C.3       1 <0>         0.0619
     14 H1          7.2232   -3.4321   -0.1015 H         1 <0>         0.1551
     15 C13         6.3712   -4.9924    1.1593 C.3       1 <0>        -0.1378
     16 C14         7.0115   -6.2709    0.5721 C.3       1 <0>        -0.0875
     17 C15         6.6930   -6.2202   -0.9042 C.2       1 <0>        -0.0064
     18 C16         6.3204   -4.9975   -1.2644 C.2       1 <0>        -0.2016
     19 C17         6.7851   -7.3685   -1.8188 C.2       1 <0>         0.4123
     20 N2          6.4709   -7.1795   -3.1387 N.am      1 <0>        -0.6515
     21 H2          6.1958   -6.3023   -3.4481 H         1 <0>         0.4156
     22 C18         6.5425   -8.2096   -4.0136 C.2       1 <0>         0.5565
     23 O1          6.2673   -8.0594   -5.1898 O.2       1 <0>        -0.4910
     24 C19         6.9657   -9.5170   -3.4902 C.ar      1 <0>        -0.1756
     25 C20         7.0704  -10.6373   -4.3123 C.ar      1 <0>        -0.0394
     26 C21         7.4718  -11.8406   -3.7745 C.ar      1 <0>        -0.1059
     27 C22         7.7722  -11.9458   -2.4224 C.ar      1 <0>        -0.0638
     28 C23         7.6757  -10.8520   -1.5913 C.ar      1 <0>        -0.0213
     29 C24         7.2702   -9.6185   -2.1136 C.ar      1 <0>         0.1448
     30 N3          7.1690   -8.5237   -1.3349 N.2       1 <0>        -0.4679
     31 Cl1         8.0558  -11.0024    0.0959 Cl        1 <0>        -0.0310
     32 H3         -0.9591    1.9053    0.0259 H         1 <0>         0.1276
     33 H4          1.1563    3.1654    0.0076 H         1 <0>         0.1279
     34 H5          3.3051    1.9634   -0.0196 H         1 <0>         0.1237
     35 H6          1.2231   -1.7588   -0.0176 H         1 <0>         0.1174
     36 H7         -0.9258   -0.5567    0.0082 H         1 <0>         0.1263
     37 H8          4.5307    0.0115   -0.0454 H         1 <0>         0.0962
     38 H9          2.9394   -2.2714   -1.3046 H         1 <0>         0.0899
     39 H10         3.7685   -0.9595   -2.1779 H         1 <0>         0.1147
     40 H11         5.1488   -3.0201   -2.1477 H         1 <0>         0.1299
     41 H12         5.9388   -1.7078   -1.2423 H         1 <0>         0.1316
     42 H13         5.1996   -3.0283    2.0278 H         1 <0>         0.1338
     43 H14         5.9674   -1.7124    1.1086 H         1 <0>         0.1315
     44 H15         3.8205   -0.9680    2.0997 H         1 <0>         0.1153
     45 H16         2.9704   -2.2764    1.2417 H         1 <0>         0.0900
     46 H17         6.9949   -4.5699    1.9471 H         1 <0>         0.1148
     47 H18         5.3645   -5.1931    1.5260 H         1 <0>         0.0986
     48 H19         8.0903   -6.2608    0.7279 H         1 <0>         0.1125
     49 H20         6.5703   -7.1586    1.0252 H         1 <0>         0.1113
     50 H21         6.0431   -4.7093   -2.2676 H         1 <0>         0.1547
     51 H22         6.8381  -10.5629   -5.3644 H         1 <0>         0.1508
     52 H23         7.5532  -12.7100   -4.4099 H         1 <0>         0.1521
     53 H24         8.0848  -12.8972   -2.0180 H         1 <0>         0.1528
     54 H25         4.3092   -3.8367   -0.0510 H         1 <0>         0.4221
@<TRIPOS>BOND
     1    1    6 ar
     2    1    2 ar
     3    1   32 1
     4    2    3 ar
     5    2   33 1
     6    3    4 ar
     7    3   34 1
     8    4    5 ar
     9    4    7 1
    10    5    6 ar
    11    5   35 1
    12    6   36 1
    13    7   12 1
    14    7    8 1
    15    7   37 1
    16    8    9 1
    17    8   38 1
    18    8   39 1
    19    9   10 1
    20    9   40 1
    21    9   41 1
    22   10   11 1
    23   10   13 1
    24   10   54 1
    25   11   12 1
    26   11   42 1
    27   11   43 1
    28   12   44 1
    29   12   45 1
    30   13   14 1
    31   13   18 1
    32   13   15 1
    33   15   16 1
    34   15   46 1
    35   15   47 1
    36   16   17 1
    37   16   48 1
    38   16   49 1
    39   17   18 2
    40   17   19 1
    41   18   50 1
    42   19   30 2
    43   19   20 1
    44   20   21 1
    45   20   22 am
    46   22   23 2
    47   22   24 1
    48   24   29 ar
    49   24   25 ar
    50   25   26 ar
    51   25   51 1
    52   26   27 ar
    53   26   52 1
    54   27   28 ar
    55   27   53 1
    56   28   29 ar
    57   28   31 1
    58   29   30 1
@<TRIPOS>MOLECULE
CHEMBL452112
   45    47     0     0     0
SMALL
USER_CHARGES

@<TRIPOS>ATOM
      1 C1          0.2209    1.7739    0.1730 C.3       1 <0>        -0.1724
      2 C2          0.3752    0.2524    0.1282 C.3       1 <0>         0.0900
      3 C3         -0.9828   -0.4106    0.1026 C.2       1 <0>        -0.1332
      4 C4         -0.9803   -1.4414    0.9431 C.2       1 <0>        -0.0345
      5 C5          0.3796   -1.5459    1.5944 C.3       1 <0>         0.1098
      6 N1          1.0286   -0.2336    1.3661 N.4       1 <0>        -0.3876
      7 C6          0.7623    0.6789    2.4861 C.3       1 <0>        -0.0493
      8 C7          0.2296   -1.8087    3.0942 C.3       1 <0>        -0.1800
      9 C8          1.1962   -2.6616    0.9392 C.3       1 <0>        -0.1713
     10 C9         -2.1196   -2.3372    1.1981 C.2       1 <0>         0.3030
     11 N2         -3.3475   -2.2411    0.6006 N.pl3     1 <0>        -0.5838
     12 H1         -3.6192   -1.5815   -0.0566 H         1 <0>         0.4277
     13 C10        -4.1265   -3.2627    1.1105 C.ar      1 <0>         0.0568
     14 C11        -5.4337   -3.6725    0.8944 C.ar      1 <0>        -0.0834
     15 C12        -5.9419   -4.7627    1.5745 C.ar      1 <0>        -0.0935
     16 C13        -5.1592   -5.4587    2.4769 C.ar      1 <0>        -0.0795
     17 C14        -3.8433   -5.0694    2.7142 C.ar      1 <0>        -0.0825
     18 C15        -3.3132   -3.9567    2.0241 C.ar      1 <0>         0.0976
     19 N3         -2.1115   -3.3546    2.0300 N.2       1 <0>        -0.4290
     20 C16        -3.0107   -5.8126    3.6763 C.2       1 <0>         0.5604
     21 O1         -1.8621   -5.4682    3.8796 O.2       1 <0>        -0.5190
     22 N4         -3.5219   -6.8739    4.3309 N.am      1 <0>        -0.8500
     23 C17         1.1913   -0.1604   -1.0985 C.3       1 <0>        -0.1742
     24 H2          1.2039    2.2363    0.2622 H         1 <0>         0.0883
     25 H3         -0.2605    2.1175   -0.7425 H         1 <0>         0.1059
     26 H4         -0.3906    2.0519    1.0314 H         1 <0>         0.0863
     27 H5         -1.8213   -0.0973   -0.5016 H         1 <0>         0.1755
     28 H6         -0.3137    0.7610    2.6399 H         1 <0>         0.1208
     29 H7          1.2301    0.2902    3.3906 H         1 <0>         0.1301
     30 H8          1.1728    1.6627    2.2587 H         1 <0>         0.1291
     31 H9         -0.2887   -2.7554    3.2471 H         1 <0>         0.1339
     32 H10         1.2162   -1.8561    3.5552 H         1 <0>         0.0836
     33 H11        -0.3455   -1.0020    3.5487 H         1 <0>         0.0788
     34 H12         1.2192   -2.5095   -0.1398 H         1 <0>         0.0830
     35 H13         2.2135   -2.6449    1.3303 H         1 <0>         0.0898
     36 H14         0.7377   -3.6254    1.1606 H         1 <0>         0.1157
     37 H15        -6.0565   -3.1378    0.1926 H         1 <0>         0.1363
     38 H16        -6.9612   -5.0740    1.3997 H         1 <0>         0.1479
     39 H17        -5.5706   -6.3088    3.0009 H         1 <0>         0.1424
     40 H18        -4.4379   -7.1486    4.1687 H         1 <0>         0.4014
     41 H19        -2.9738   -7.3632    4.9643 H         1 <0>         0.4094
     42 H20         2.2179    0.1882   -0.9860 H         1 <0>         0.0897
     43 H21         1.1844   -1.2465   -1.1907 H         1 <0>         0.0876
     44 H22         0.7529    0.2830   -1.9925 H         1 <0>         0.1100
     45 H23         2.0212   -0.3466    1.2245 H         1 <0>         0.4326
@<TRIPOS>BOND
     1    1    2 1
     2    1   24 1
     3    1   25 1
     4    1   26 1
     5    2    6 1
     6    2    3 1
     7    2   23 1
     8    3    4 2
     9    3   27 1
    10    4    5 1
    11    4   10 1
    12    5    6 1
    13    5    8 1
    14    5    9 1
    15    6    7 1
    16    6   45 1
    17    7   28 1
    18    7   29 1
    19    7   30 1
    20    8   31 1
    21    8   32 1
    22    8   33 1
    23    9   34 1
    24    9   35 1
    25    9   36 1
    26   10   19 2
    27   10   11 1
    28   11   12 1
    29   11   13 1
    30   13   18 ar
    31   13   14 ar
    32   14   15 ar
    33   14   37 1
    34   15   16 ar
    35   15   38 1
    36   16   17 ar
    37   16   39 1
    38   17   18 ar
    39   17   20 1
    40   18   19 1
    41   20   21 2
    42   20   22 am
    43   22   40 1
    44   22   41 1
    45   23   42 1
    46   23   43 1
    47   23   44 1
@<TRIPOS>MOLECULE
CHEMBL452112__1
   44    46     0     0     0
SMALL
USER_CHARGES

@<TRIPOS>ATOM
      1 C1          0.2206    1.7755    0.1731 C.3       1 <0>        -0.1501
      2 C2          0.3754    0.2540    0.1277 C.3       1 <0>         0.1121
      3 C3         -0.9824   -0.4094    0.1020 C.2       1 <0>        -0.1426
      4 C4         -0.9795   -1.4404    0.9421 C.2       1 <0>        -0.0816
      5 C5          0.3804   -1.5447    1.5934 C.3       1 <0>         0.1404
      6 N1          1.0290   -0.2321    1.3655 N.3       1 <0>        -0.4863
      7 C6          0.7769    0.6816    2.4877 C.3       1 <0>         0.0073
      8 C7          0.2306   -1.8081    3.0931 C.3       1 <0>        -0.1577
      9 C8          1.1973   -2.6600    0.9378 C.3       1 <0>        -0.1286
     10 C9         -2.1186   -2.3366    1.1969 C.2       1 <0>         0.3408
     11 N2         -3.3465   -2.2408    0.5995 N.pl3     1 <0>        -0.5939
     12 H1         -3.6185   -1.5810   -0.0575 H         1 <0>         0.4241
     13 C10        -4.1253   -3.2627    1.1092 C.ar      1 <0>         0.0400
     14 C11        -5.4323   -3.6729    0.8930 C.ar      1 <0>        -0.0797
     15 C12        -5.9402   -4.7634    1.5728 C.ar      1 <0>        -0.1125
     16 C13        -5.1572   -5.4595    2.4748 C.ar      1 <0>        -0.0855
     17 C14        -3.8414   -5.0699    2.7122 C.ar      1 <0>        -0.0898
     18 C15        -3.3117   -3.9567    2.0224 C.ar      1 <0>         0.1045
     19 N3         -2.1101   -3.3543    2.0285 N.2       1 <0>        -0.4431
     20 C16        -3.0085   -5.8131    3.6740 C.2       1 <0>         0.5575
     21 O1         -1.8601   -5.4684    3.8774 O.2       1 <0>        -0.5097
     22 N4         -3.5194   -6.8748    4.3284 N.am      1 <0>        -0.8554
     23 C17         1.1915   -0.1581   -1.0991 C.3       1 <0>        -0.1311
     24 H2          1.2035    2.2382    0.2624 H         1 <0>         0.0706
     25 H3         -0.2609    2.1192   -0.7424 H         1 <0>         0.0639
     26 H4         -0.3909    2.0531    1.0316 H         1 <0>         0.0611
     27 H5         -1.8210   -0.0962   -0.5021 H         1 <0>         0.1355
     28 H6         -0.2963    0.7512    2.6655 H         1 <0>         0.0309
     29 H7          1.2696    0.3022    3.3829 H         1 <0>         0.0763
     30 H8          1.1701    1.6694    2.2474 H         1 <0>         0.0747
     31 H9         -0.2875   -2.7549    3.2457 H         1 <0>         0.0959
     32 H10         1.2172   -1.8553    3.5540 H         1 <0>         0.0620
     33 H11        -0.3448   -1.0017    3.5479 H         1 <0>         0.0522
     34 H12         1.2199   -2.5077   -0.1412 H         1 <0>         0.0583
     35 H13         2.2147   -2.6429    1.3285 H         1 <0>         0.0683
     36 H14         0.7393   -3.6240    1.1592 H         1 <0>         0.0670
     37 H15        -6.0553   -3.1381    0.1913 H         1 <0>         0.1296
     38 H16        -6.9594   -5.0749    1.3979 H         1 <0>         0.1400
     39 H17        -5.5683   -6.3098    2.9986 H         1 <0>         0.1356
     40 H18        -4.4354   -7.1497    4.1661 H         1 <0>         0.3983
     41 H19        -2.9711   -7.3641    4.9615 H         1 <0>         0.4055
     42 H20         2.2181    0.1904   -0.9863 H         1 <0>         0.0710
     43 H21         1.1846   -1.2441   -1.1919 H         1 <0>         0.0641
     44 H22         0.7532    0.2857   -1.9929 H         1 <0>         0.0600
@<TRIPOS>BOND
     1    1    2 1
     2    1   24 1
     3    1   25 1
     4    1   26 1
     5    2    6 1
     6    2    3 1
     7    2   23 1
     8    3    4 2
     9    3   27 1
    10    4    5 1
    11    4   10 1
    12    5    6 1
    13    5    8 1
    14    5    9 1
    15    6    7 1
    16    7   28 1
    17    7   29 1
    18    7   30 1
    19    8   31 1
    20    8   32 1
    21    8   33 1
    22    9   34 1
    23    9   35 1
    24    9   36 1
    25   10   19 2
    26   10   11 1
    27   11   12 1
    28   11   13 1
    29   13   18 ar
    30   13   14 ar
    31   14   15 ar
    32   14   37 1
    33   15   16 ar
    34   15   38 1
    35   16   17 ar
    36   16   39 1
    37   17   18 ar
    38   17   20 1
    39   18   19 1
    40   20   21 2
    41   20   22 am
    42   22   40 1
    43   22   41 1
    44   23   42 1
    45   23   43 1
    46   23   44 1
@<TRIPOS>MOLECULE
CHEMBL551127
   43    46     0     0     0
SMALL
USER_CHARGES

@<TRIPOS>ATOM
      1 C1          3.4502   -5.1817    0.8381 C.ar      1 <0>        -0.1772
      2 C2          4.6983   -4.5837    0.8415 C.ar      1 <0>        -0.0159
      3 C3          4.7788   -3.2146    0.5609 C.ar      1 <0>        -0.1910
      4 C4          3.6038   -2.5118    0.2905 C.ar      1 <0>         0.1346
      5 N1          2.4391   -3.1258    0.2996 N.ar      1 <0>        -0.4868
      6 C5          2.3330   -4.4150    0.5602 C.ar      1 <0>         0.1237
      7 C6          6.0864   -2.5248    0.5517 C.2       1 <0>         0.5645
      8 O1          7.1034   -3.1469    0.7890 O.2       1 <0>        -0.5293
      9 N2          6.1508   -1.2063    0.2801 N.am      1 <0>        -0.7270
     10 C7          7.4465   -0.5228    0.2709 C.3       1 <0>         0.1212
     11 C8          7.2406    0.9562   -0.0628 C.3       1 <0>        -0.0599
     12 C9          8.5734    1.6593   -0.0722 C.2       1 <0>        -0.1642
     13 C10         9.3542    1.8769   -1.1416 C.2       1 <0>         0.0634
     14 N3         10.4873    2.5455   -0.7647 N.pl3     1 <0>        -0.5891
     15 H1         11.2008    2.8134   -1.3648 H         1 <0>         0.4205
     16 C11        10.4657    2.7815    0.5887 C.ar      1 <0>         0.1249
     17 C12         9.2611    2.2414    1.0838 C.ar      1 <0>        -0.1080
     18 C13         8.9642    2.3405    2.4382 C.ar      1 <0>         0.0076
     19 C14         9.8632    2.9755    3.2922 C.ar      1 <0>        -0.1660
     20 C15        11.0540    3.5109    2.7900 C.ar      1 <0>        -0.0372
     21 C16        11.3513    3.4102    1.4618 C.ar      1 <0>        -0.1399
     22 C17         9.5329    3.0679    4.7290 C.2       1 <0>         0.5700
     23 O2         10.1052    3.8698    5.4414 O.2       1 <0>        -0.5379
     24 N4          8.5893    2.2528    5.2408 N.am      1 <0>        -0.7281
     25 C18         7.9301    1.2464    4.4126 C.3       1 <0>         0.1139
     26 C19         7.6877    1.7751    3.0007 C.3       1 <0>        -0.1092
     27 H2          3.3500   -6.2368    1.0458 H         1 <0>         0.1454
     28 H3          5.5873   -5.1585    1.0556 H         1 <0>         0.1485
     29 H4          3.6502   -1.4551    0.0723 H         1 <0>         0.1579
     30 H5          1.3578   -4.8791    0.5569 H         1 <0>         0.1636
     31 H6          5.3392   -0.7099    0.0906 H         1 <0>         0.4007
     32 H7          7.9115   -0.6124    1.2526 H         1 <0>         0.0734
     33 H8          8.0922   -0.9781   -0.4800 H         1 <0>         0.0732
     34 H9          6.7755    1.0458   -1.0445 H         1 <0>         0.0816
     35 H10         6.5949    1.4115    0.6881 H         1 <0>         0.0818
     36 H11         9.1229    1.5693   -2.1507 H         1 <0>         0.1742
     37 H12        11.7448    4.0032    3.4585 H         1 <0>         0.1390
     38 H13        12.2723    3.8290    1.0839 H         1 <0>         0.1285
     39 H14         8.3439    2.3358    6.1756 H         1 <0>         0.4054
     40 H15         8.5596    0.3582    4.3593 H         1 <0>         0.0684
     41 H16         6.9745    0.9806    4.8645 H         1 <0>         0.0901
     42 H17         6.9286    2.5567    3.0323 H         1 <0>         0.0904
     43 H18         7.3409    0.9612    2.3640 H         1 <0>         0.1003
@<TRIPOS>BOND
     1    1    6 ar
     2    1    2 ar
     3    1   27 1
     4    2    3 ar
     5    2   28 1
     6    3    4 ar
     7    3    7 1
     8    4    5 ar
     9    4   29 1
    10    5    6 ar
    11    6   30 1
    12    7    8 2
    13    7    9 am
    14    9   10 1
    15    9   31 1
    16   10   11 1
    17   10   32 1
    18   10   33 1
    19   11   12 1
    20   11   34 1
    21   11   35 1
    22   12   17 1
    23   12   13 2
    24   13   14 1
    25   13   36 1
    26   14   15 1
    27   14   16 1
    28   16   21 ar
    29   16   17 ar
    30   17   18 ar
    31   18   26 1
    32   18   19 ar
    33   19   20 ar
    34   19   22 1
    35   20   21 ar
    36   20   37 1
    37   21   38 1
    38   22   23 2
    39   22   24 am
    40   24   25 1
    41   24   39 1
    42   25   26 1
    43   25   40 1
    44   25   41 1
    45   26   42 1
    46   26   43 1
@<TRIPOS>MOLECULE
CHEMBL508903
   32    34     0     0     0
SMALL
USER_CHARGES

@<TRIPOS>ATOM
      1 C1         -0.0167    1.3769    0.0096 C.ar      1 <0>        -0.0851
      2 C2          1.1632    2.0980    0.0022 C.ar      1 <0>        -0.0797
      3 C3          2.3901    1.4397   -0.0135 C.ar      1 <0>        -0.0735
      4 C4          2.4203    0.0291   -0.0214 C.ar      1 <0>         0.0906
      5 C5          1.2109   -0.6850   -0.0132 C.ar      1 <0>         0.0610
      6 C6          0.0021   -0.0041    0.0020 C.ar      1 <0>        -0.0875
      7 N1          1.5594   -2.0218   -0.0239 N.pl3     1 <0>        -0.5969
      8 H1          0.9495   -2.7761   -0.0221 H         1 <0>         0.4231
      9 C7          2.9166   -2.0818   -0.0377 C.2       1 <0>         0.2257
     10 N2          3.4163   -0.8785   -0.0362 N.2       1 <0>        -0.4066
     11 C8          3.7253   -3.3533   -0.0521 C.3       1 <0>         0.0970
     12 C9          3.9147   -3.9788    1.3400 C.3       1 <0>        -0.1232
     13 C10         5.3580   -4.2960    0.9146 C.3       1 <0>        -0.1564
     14 C11         5.2448   -3.1169   -0.0660 C.3       1 <0>        -0.1114
     15 N3          3.2690   -4.3081   -1.0710 N.4       1 <0>        -0.6159
     16 C12         3.6468    2.2101   -0.0224 C.2       1 <0>         0.5569
     17 O1          4.7155    1.6299   -0.0361 O.2       1 <0>        -0.5139
     18 N4          3.6115    3.5573   -0.0152 N.am      1 <0>        -0.8486
     19 H2         -0.9621    1.8987    0.0260 H         1 <0>         0.1505
     20 H3          1.1329    3.1775    0.0083 H         1 <0>         0.1453
     21 H4         -0.9266   -0.5554    0.0083 H         1 <0>         0.1378
     22 H5          3.8481   -3.2582    2.1551 H         1 <0>         0.1292
     23 H6          3.3037   -4.8659    1.5069 H         1 <0>         0.0997
     24 H7          6.0912   -4.1374    1.7054 H         1 <0>         0.1078
     25 H8          5.4660   -5.2633    0.4238 H         1 <0>         0.0966
     26 H9          5.7076   -3.3081   -1.0342 H         1 <0>         0.1008
     27 H10         5.5418   -2.1607    0.3647 H         1 <0>         0.1431
     28 H11         3.4892   -3.9514   -1.9888 H         1 <0>         0.4438
     29 H12         3.7330   -5.1935   -0.9341 H         1 <0>         0.4461
     30 H13         2.7590    4.0201   -0.0042 H         1 <0>         0.4015
     31 H14         4.4385    4.0642   -0.0210 H         1 <0>         0.4112
     32 H15         2.2713   -4.4351   -0.9901 H         1 <0>         0.4312
@<TRIPOS>BOND
     1    1    6 ar
     2    1    2 ar
     3    1   19 1
     4    2    3 ar
     5    2   20 1
     6    3    4 ar
     7    3   16 1
     8    4   10 1
     9    4    5 ar
    10    5    6 ar
    11    5    7 1
    12    6   21 1
    13    7    8 1
    14    7    9 1
    15    9   10 2
    16    9   11 1
    17   11   14 1
    18   11   12 1
    19   11   15 1
    20   12   13 1
    21   12   22 1
    22   12   23 1
    23   13   14 1
    24   13   24 1
    25   13   25 1
    26   14   26 1
    27   14   27 1
    28   15   28 1
    29   15   29 1
    30   15   32 1
    31   16   17 2
    32   16   18 am
    33   18   30 1
    34   18   31 1
@<TRIPOS>MOLECULE
CHEMBL550336
   45    48     0     0     0
SMALL
USER_CHARGES

@<TRIPOS>ATOM
      1 C1         -0.0167    1.3782    0.0096 C.ar      1 <0>        -0.0735
      2 C2          1.1723    2.0893    0.0021 C.ar      1 <0>        -0.1353
      3 C3          2.3715    1.4075   -0.0161 C.ar      1 <0>         0.1932
      4 C4          2.3968    0.0108   -0.0356 C.ar      1 <0>         0.1135
      5 C5          1.2029   -0.6910   -0.0198 C.ar      1 <0>        -0.1000
      6 C6          0.0021   -0.0041    0.0020 C.ar      1 <0>        -0.1733
      7 C7         -1.2962   -0.7691    0.0175 C.3       1 <0>         0.0545
      8 N1         -1.7390   -1.0103   -1.3622 N.4       1 <0>        -0.3931
      9 C8         -0.8241   -1.9688   -2.0335 C.3       1 <0>        -0.0052
     10 C9         -1.6890   -2.5355   -3.1874 C.3       1 <0>        -0.1459
     11 C10        -3.0927   -2.6401   -2.5480 C.3       1 <0>        -0.1452
     12 C11        -3.0705   -1.6541   -1.3654 C.3       1 <0>        -0.0092
     13 N2          3.6255   -0.6620   -0.0896 N.am      1 <0>        -0.6650
     14 C12         4.7644   -0.0206    0.2614 C.2       1 <0>         0.5062
     15 O1          5.8292   -0.6009    0.2344 O.2       1 <0>        -0.4953
     16 C13         4.6935    1.4197    0.6858 C.3       1 <0>         0.1517
     17 N3          3.6073    2.0884   -0.0055 N.pl3     1 <0>        -0.6179
     18 C14         3.7142    3.3552   -0.7155 C.3       1 <0>         0.1308
     19 C15         4.9844    4.1046   -0.3157 C.3       1 <0>        -0.1347
     20 C16         6.1613    3.1251   -0.4401 C.3       1 <0>        -0.1203
     21 C17         6.0338    2.1005    0.6844 C.3       1 <0>        -0.1207
     22 H1         -0.9596    1.9045    0.0260 H         1 <0>         0.1361
     23 H2          1.1605    3.1692    0.0100 H         1 <0>         0.1434
     24 H3          1.2092   -1.7710   -0.0241 H         1 <0>         0.1349
     25 H4         -1.1498   -1.7230    0.5242 H         1 <0>         0.1327
     26 H5         -2.0532   -0.1894    0.5459 H         1 <0>         0.1362
     27 H6          0.0520   -1.4532   -2.4268 H         1 <0>         0.1326
     28 H7         -0.5288   -2.7632   -1.3481 H         1 <0>         0.1312
     29 H8         -1.7008   -1.8488   -4.0337 H         1 <0>         0.0970
     30 H9         -1.3296   -3.5185   -3.4919 H         1 <0>         0.1151
     31 H10        -3.8586   -2.3508   -3.2676 H         1 <0>         0.1043
     32 H11        -3.2713   -3.6546   -2.1915 H         1 <0>         0.1031
     33 H12        -3.2249   -2.1924   -0.4302 H         1 <0>         0.1307
     34 H13        -3.8471   -0.9004   -1.4957 H         1 <0>         0.1318
     35 H14         3.6595   -1.5873   -0.3789 H         1 <0>         0.4143
     36 H15         4.3806    1.3939    1.7295 H         1 <0>         0.0821
     37 H16         3.7350    3.1632   -1.7883 H         1 <0>         0.0584
     38 H17         2.8464    3.9714   -0.4802 H         1 <0>         0.0747
     39 H18         5.1380    4.9536   -0.9819 H         1 <0>         0.0879
     40 H19         4.9000    4.4523    0.7139 H         1 <0>         0.0766
     41 H20         6.1216    2.6206   -1.4054 H         1 <0>         0.0674
     42 H21         7.1032    3.6651   -0.3431 H         1 <0>         0.0824
     43 H22         6.1748    2.6055    1.6400 H         1 <0>         0.0862
     44 H23         6.8129    1.3474    0.5662 H         1 <0>         0.0999
     45 H24        -1.7713   -0.1417   -1.8746 H         1 <0>         0.4260
@<TRIPOS>BOND
     1    1    6 ar
     2    1    2 ar
     3    1   22 1
     4    2    3 ar
     5    2   23 1
     6    3   17 1
     7    3    4 ar
     8    4    5 ar
     9    4   13 1
    10    5    6 ar
    11    5   24 1
    12    6    7 1
    13    7    8 1
    14    7   25 1
    15    7   26 1
    16    8   12 1
    17    8    9 1
    18    8   45 1
    19    9   10 1
    20    9   27 1
    21    9   28 1
    22   10   11 1
    23   10   29 1
    24   10   30 1
    25   11   12 1
    26   11   31 1
    27   11   32 1
    28   12   33 1
    29   12   34 1
    30   13   14 am
    31   13   35 1
    32   14   15 2
    33   14   16 1
    34   16   21 1
    35   16   17 1
    36   16   36 1
    37   17   18 1
    38   18   19 1
    39   18   37 1
    40   18   38 1
    41   19   20 1
    42   19   39 1
    43   19   40 1
    44   20   21 1
    45   20   41 1
    46   20   42 1
    47   21   43 1
    48   21   44 1
@<TRIPOS>MOLECULE
CHEMBL550336__1
   45    48     0     0     0
SMALL
USER_CHARGES

@<TRIPOS>ATOM
      1 C1         -0.0167    1.3783    0.0096 C.ar      1 <0>        -0.0734
      2 C2          1.1722    2.0895    0.0021 C.ar      1 <0>        -0.1359
      3 C3          2.3717    1.4079   -0.0085 C.ar      1 <0>         0.1932
      4 C4          2.3972    0.0112   -0.0037 C.ar      1 <0>         0.1137
      5 C5          1.2032   -0.6908   -0.0050 C.ar      1 <0>        -0.0999
      6 C6          0.0021   -0.0041    0.0020 C.ar      1 <0>        -0.1734
      7 C7         -1.2963   -0.7692    0.0014 C.3       1 <0>         0.0545
      8 N1         -1.7219   -1.0102   -1.3838 N.4       1 <0>        -0.3931
      9 C8         -0.7987   -1.9685   -2.0439 C.3       1 <0>        -0.0050
     10 C9         -1.6492   -2.5351   -3.2084 C.3       1 <0>        -0.1459
     11 C10        -3.0607   -2.6399   -2.5866 C.3       1 <0>        -0.1452
     12 C11        -3.0532   -1.6541   -1.4036 C.3       1 <0>        -0.0091
     13 N2          3.6266   -0.6624    0.0214 N.am      1 <0>        -0.6649
     14 C12         4.7591   -0.0172   -0.3438 C.2       1 <0>         0.5049
     15 O1          5.8242   -0.5975   -0.3415 O.2       1 <0>        -0.4952
     16 C13         4.6803    1.4272   -0.7528 C.3       1 <0>         0.1534
     17 N3          3.6071    2.0892   -0.0349 N.pl3     1 <0>        -0.6180
     18 C14         3.7265    3.3493    0.6851 C.3       1 <0>         0.1297
     19 C15         4.9888    4.1030    0.2684 C.3       1 <0>        -0.1341
     20 C16         6.1683    3.1232    0.3621 C.3       1 <0>        -0.1210
     21 C17         6.0203    2.1085   -0.7699 C.3       1 <0>        -0.1208
     22 H1         -0.9596    1.9046    0.0260 H         1 <0>         0.1362
     23 H2          1.1602    3.1694    0.0041 H         1 <0>         0.1433
     24 H3          1.2098   -1.7707   -0.0112 H         1 <0>         0.1347
     25 H4         -1.1561   -1.7232    0.5096 H         1 <0>         0.1326
     26 H5         -2.0597   -0.1897    0.5204 H         1 <0>         0.1360
     27 H6          0.0821   -1.4528   -2.4263 H         1 <0>         0.1327
     28 H7         -0.5119   -2.7630   -1.3550 H         1 <0>         0.1311
     29 H8         -1.6507   -1.8482   -4.0548 H         1 <0>         0.0970
     30 H9         -1.2860   -3.5180   -3.5086 H         1 <0>         0.1151
     31 H10        -3.8177   -2.3505   -3.3154 H         1 <0>         0.1043
     32 H11        -3.2437   -3.6545   -2.2325 H         1 <0>         0.1030
     33 H12        -3.2191   -2.1926   -0.4705 H         1 <0>         0.1307
     34 H13        -3.8282   -0.9005   -1.5433 H         1 <0>         0.1318
     35 H14         3.6656   -1.5905    0.3008 H         1 <0>         0.4152
     36 H15         4.3478    1.4114   -1.7908 H         1 <0>         0.0805
     37 H16         2.8542    3.9672    0.4719 H         1 <0>         0.0751
     38 H17         3.7675    3.1472    1.7554 H         1 <0>         0.0596
     39 H18         4.8850    4.4597   -0.7563 H         1 <0>         0.0759
     40 H19         5.1543    4.9461    0.9391 H         1 <0>         0.0881
     41 H20         7.1079    3.6647    0.2525 H         1 <0>         0.0825
     42 H21         6.1467    2.6100    1.3235 H         1 <0>         0.0681
     43 H22         6.8015    1.3545   -0.6731 H         1 <0>         0.0998
     44 H23         6.1435    2.6222   -1.7234 H         1 <0>         0.0858
     45 H24        -1.7480   -0.1415   -1.8964 H         1 <0>         0.4261
@<TRIPOS>BOND
     1    1    6 ar
     2    1    2 ar
     3    1   22 1
     4    2    3 ar
     5    2   23 1
     6    3   17 1
     7    3    4 ar
     8    4    5 ar
     9    4   13 1
    10    5    6 ar
    11    5   24 1
    12    6    7 1
    13    7    8 1
    14    7   25 1
    15    7   26 1
    16    8   12 1
    17    8    9 1
    18    8   45 1
    19    9   10 1
    20    9   27 1
    21    9   28 1
    22   10   11 1
    23   10   29 1
    24   10   30 1
    25   11   12 1
    26   11   31 1
    27   11   32 1
    28   12   33 1
    29   12   34 1
    30   13   14 am
    31   13   35 1
    32   14   15 2
    33   14   16 1
    34   16   21 1
    35   16   17 1
    36   16   36 1
    37   17   18 1
    38   18   19 1
    39   18   37 1
    40   18   38 1
    41   19   20 1
    42   19   39 1
    43   19   40 1
    44   20   21 1
    45   20   41 1
    46   20   42 1
    47   21   43 1
    48   21   44 1
@<TRIPOS>MOLECULE
CHEMBL480615
   57    60     0     0     0
SMALL
USER_CHARGES

@<TRIPOS>ATOM
      1 C1         -0.0187    1.5258    0.0104 C.3       1 <0>        -0.1493
      2 C2          0.0021   -0.0041    0.0020 C.3       1 <0>        -0.0921
      3 C3         -1.4339   -0.5406    0.0415 C.3       1 <0>        -0.1186
      4 C4         -1.3908   -2.0499   -0.1901 C.3       1 <0>        -0.0685
      5 C5         -0.4004   -2.7002    0.7392 C.2       1 <0>         0.1714
      6 C6          0.5703   -2.0036    1.3771 C.2       1 <0>        -0.2252
      7 C7          1.4644   -2.7037    2.2215 C.2       1 <0>         0.5215
      8 O1          2.3556   -2.1118    2.8073 O.2       1 <0>        -0.5172
      9 N1          1.3148   -4.0356    2.3683 N.am      1 <0>        -0.6306
     10 H1          1.9172   -4.5337    2.9427 H         1 <0>         0.4194
     11 C8          0.3235   -4.6711    1.7129 C.2       1 <0>         0.3808
     12 N2         -0.4967   -4.0253    0.9324 N.2       1 <0>        -0.5357
     13 C9          0.1597   -6.1591    1.8861 C.3       1 <0>        -0.0705
     14 C10        -1.0247   -6.6430    1.0471 C.3       1 <0>        -0.1327
     15 C11        -1.1909   -8.1537    1.2229 C.3       1 <0>        -0.0125
     16 N3         -2.3281   -8.6182    0.4173 N.4       1 <0>        -0.3855
     17 C12        -2.5571  -10.0499    0.6682 C.3       1 <0>        -0.0024
     18 C13        -3.8892  -10.4508    0.0291 C.3       1 <0>        -0.1135
     19 C14        -3.9302   -9.9681   -1.3947 C.2       1 <0>        -0.0458
     20 C15        -3.0981   -9.0585   -1.8540 C.2       1 <0>        -0.1885
     21 C16        -2.0328   -8.4242   -1.0071 C.3       1 <0>         0.0335
     22 C17        -4.9415  -10.5362   -2.3109 C.ar      1 <0>        -0.0845
     23 C18        -6.2992  -10.3081   -2.0841 C.ar      1 <0>        -0.1014
     24 C19        -7.2381  -10.8409   -2.9434 C.ar      1 <0>        -0.1156
     25 C20        -6.8358  -11.5999   -4.0279 C.ar      1 <0>        -0.1025
     26 C21        -5.4912  -11.8297   -4.2583 C.ar      1 <0>        -0.1154
     27 C22        -4.5421  -11.2982   -3.4095 C.ar      1 <0>        -0.1003
     28 C23         0.7401   -0.5158    1.2381 C.3       1 <0>        -0.0554
     29 H2          1.0039    1.9031    0.0027 H         1 <0>         0.0596
     30 H3         -0.5459    1.8868   -0.8726 H         1 <0>         0.0606
     31 H4         -0.5289    1.8773    0.9072 H         1 <0>         0.0582
     32 H5          0.5031   -0.3596   -0.8984 H         1 <0>         0.0750
     33 H6         -1.8775   -0.3311    1.0149 H         1 <0>         0.0701
     34 H7         -2.0249   -0.0657   -0.7417 H         1 <0>         0.0803
     35 H8         -2.3808   -2.4694   -0.0110 H         1 <0>         0.0889
     36 H9         -1.0988   -2.2470   -1.2216 H         1 <0>         0.0908
     37 H10         1.0678   -6.6652    1.5585 H         1 <0>         0.1101
     38 H11        -0.0230   -6.3847    2.9367 H         1 <0>         0.1102
     39 H12        -1.9328   -6.1369    1.3747 H         1 <0>         0.1012
     40 H13        -0.8419   -6.4174   -0.0036 H         1 <0>         0.1011
     41 H14        -0.2828   -8.6597    0.8952 H         1 <0>         0.1326
     42 H15        -1.3737   -8.3793    2.2735 H         1 <0>         0.1344
     43 H16        -1.7491  -10.6327    0.2260 H         1 <0>         0.1332
     44 H17        -2.5972  -10.2314    1.7422 H         1 <0>         0.1378
     45 H18        -3.9886  -11.5361    0.0475 H         1 <0>         0.1254
     46 H19        -4.7099  -10.0019    0.5885 H         1 <0>         0.1066
     47 H20        -3.1854   -8.7541   -2.8865 H         1 <0>         0.1507
     48 H21        -1.9875   -7.3569   -1.2238 H         1 <0>         0.1433
     49 H22        -1.0695   -8.8777   -1.2405 H         1 <0>         0.1382
     50 H23        -6.6146   -9.7161   -1.2377 H         1 <0>         0.1231
     51 H24        -8.2894  -10.6654   -2.7688 H         1 <0>         0.1299
     52 H25        -7.5747  -12.0150   -4.6973 H         1 <0>         0.1296
     53 H26        -5.1836  -12.4231   -5.1066 H         1 <0>         0.1302
     54 H27        -3.4925  -11.4749   -3.5928 H         1 <0>         0.1246
     55 H28         1.8008   -0.2823    1.1458 H         1 <0>         0.0831
     56 H29         0.3402   -0.0239    2.1248 H         1 <0>         0.0808
     57 H30        -3.1540   -8.0943    0.6653 H         1 <0>         0.4271
@<TRIPOS>BOND
     1    1    2 1
     2    1   29 1
     3    1   30 1
     4    1   31 1
     5    2   28 1
     6    2    3 1
     7    2   32 1
     8    3    4 1
     9    3   33 1
    10    3   34 1
    11    4    5 1
    12    4   35 1
    13    4   36 1
    14    5   12 1
    15    5    6 2
    16    6    7 1
    17    6   28 1
    18    7    8 2
    19    7    9 am
    20    9   10 1
    21    9   11 1
    22   11   12 2
    23   11   13 1
    24   13   14 1
    25   13   37 1
    26   13   38 1
    27   14   15 1
    28   14   39 1
    29   14   40 1
    30   15   16 1
    31   15   41 1
    32   15   42 1
    33   16   21 1
    34   16   17 1
    35   16   57 1
    36   17   18 1
    37   17   43 1
    38   17   44 1
    39   18   19 1
    40   18   45 1
    41   18   46 1
    42   19   20 2
    43   19   22 1
    44   20   21 1
    45   20   47 1
    46   21   48 1
    47   21   49 1
    48   22   27 ar
    49   22   23 ar
    50   23   24 ar
    51   23   50 1
    52   24   25 ar
    53   24   51 1
    54   25   26 ar
    55   25   52 1
    56   26   27 ar
    57   26   53 1
    58   27   54 1
    59   28   55 1
    60   28   56 1
@<TRIPOS>MOLECULE
CHEMBL480615__1
   57    60     0     0     0
SMALL
USER_CHARGES

@<TRIPOS>ATOM
      1 C1         -0.0187    1.5258    0.0104 C.3       1 <0>        -0.1492
      2 C2          0.0021   -0.0041    0.0020 C.3       1 <0>        -0.0922
      3 C3          0.7437   -0.5040   -1.2436 C.3       1 <0>        -0.1185
      4 C4          0.5578   -2.0171   -1.3401 C.3       1 <0>        -0.0685
      5 C5          0.9089   -2.6782   -0.0335 C.2       1 <0>         0.1714
      6 C6          0.9809   -1.9967    1.1348 C.2       1 <0>        -0.2252
      7 C7          1.3054   -2.7064    2.3153 C.2       1 <0>         0.5215
      8 O1          1.3720   -2.1285    3.3874 O.2       1 <0>        -0.5172
      9 N1          1.5394   -4.0319    2.2357 N.am      1 <0>        -0.6305
     10 H1          1.7629   -4.5364    3.0335 H         1 <0>         0.4194
     11 C8          1.4607   -4.6520    1.0419 C.2       1 <0>         0.3809
     12 N2          1.1575   -3.9975   -0.0438 N.2       1 <0>        -0.5357
     13 C9          1.7285   -6.1327    0.9604 C.3       1 <0>        -0.0705
     14 C10         1.5784   -6.5992   -0.4890 C.3       1 <0>        -0.1327
     15 C11         1.8503   -8.1025   -0.5717 C.3       1 <0>        -0.0125
     16 N3          1.7063   -8.5504   -1.9634 N.4       1 <0>        -0.3854
     17 C12         1.8607  -10.0122   -2.0287 C.3       1 <0>        -0.0025
     18 C13         1.4537  -10.4843   -3.4269 C.3       1 <0>        -0.1136
     19 C14         2.1575   -9.6529   -4.4640 C.2       1 <0>        -0.0458
     20 C15         2.7319   -8.5052   -4.1750 C.2       1 <0>        -0.1886
     21 C16         2.7432   -7.9231   -2.7910 C.3       1 <0>         0.0335
     22 C17         2.2059  -10.1431   -5.8576 C.ar      1 <0>        -0.0845
     23 C18         1.0303  -10.2623   -6.5996 C.ar      1 <0>        -0.1014
     24 C19         1.0824  -10.7201   -7.9002 C.ar      1 <0>        -0.1155
     25 C20         2.2968  -11.0605   -8.4687 C.ar      1 <0>        -0.1025
     26 C21         3.4660  -10.9446   -7.7384 C.ar      1 <0>        -0.1154
     27 C22         3.4281  -10.4831   -6.4386 C.ar      1 <0>        -0.1003
     28 C23         0.7401   -0.5158    1.2381 C.3       1 <0>        -0.0553
     29 H2          1.0039    1.9031    0.0027 H         1 <0>         0.0582
     30 H3         -0.5459    1.8868   -0.8726 H         1 <0>         0.0606
     31 H4         -0.5289    1.8773    0.9072 H         1 <0>         0.0596
     32 H5         -1.0191   -0.3852   -0.0001 H         1 <0>         0.0751
     33 H6          0.3319   -0.0261   -2.1325 H         1 <0>         0.0803
     34 H7          1.8047   -0.2692   -1.1581 H         1 <0>         0.0701
     35 H8         -0.4811   -2.2366   -1.5862 H         1 <0>         0.0908
     36 H9          1.2033   -2.4092   -2.1261 H         1 <0>         0.0888
     37 H10         2.7419   -6.3382    1.3051 H         1 <0>         0.1101
     38 H11         1.0156   -6.6660    1.5893 H         1 <0>         0.1103
     39 H12         0.5650   -6.3937   -0.8338 H         1 <0>         0.1013
     40 H13         2.2913   -6.0659   -1.1180 H         1 <0>         0.1010
     41 H14         2.8637   -8.3080   -0.2270 H         1 <0>         0.1325
     42 H15         1.1375   -8.6358    0.0572 H         1 <0>         0.1344
     43 H16         2.9007  -10.2791   -1.8407 H         1 <0>         0.1332
     44 H17         1.2193  -10.4817   -1.2829 H         1 <0>         0.1378
     45 H18         1.7308  -11.5311   -3.5516 H         1 <0>         0.1254
     46 H19         0.3756  -10.3777   -3.5466 H         1 <0>         0.1066
     47 H20         3.2167   -7.9568   -4.9691 H         1 <0>         0.1507
     48 H21         2.5582   -6.8505   -2.8492 H         1 <0>         0.1433
     49 H22         3.7192   -8.0935   -2.3365 H         1 <0>         0.1383
     50 H23         0.0816   -9.9972   -6.1568 H         1 <0>         0.1231
     51 H24         0.1731  -10.8131   -8.4755 H         1 <0>         0.1299
     52 H25         2.3322  -11.4187   -9.4870 H         1 <0>         0.1296
     53 H26         4.4109  -11.2120   -8.1879 H         1 <0>         0.1302
     54 H27         4.3420  -10.3892   -5.8709 H         1 <0>         0.1246
     55 H28         1.6971   -0.0011    1.3241 H         1 <0>         0.0808
     56 H29         0.1411   -0.3101    2.1252 H         1 <0>         0.0831
     57 H30         0.7949   -8.2900   -2.3092 H         1 <0>         0.4271
@<TRIPOS>BOND
     1    1    2 1
     2    1   29 1
     3    1   30 1
     4    1   31 1
     5    2   28 1
     6    2    3 1
     7    2   32 1
     8    3    4 1
     9    3   33 1
    10    3   34 1
    11    4    5 1
    12    4   35 1
    13    4   36 1
    14    5   12 1
    15    5    6 2
    16    6    7 1
    17    6   28 1
    18    7    8 2
    19    7    9 am
    20    9   10 1
    21    9   11 1
    22   11   12 2
    23   11   13 1
    24   13   14 1
    25   13   37 1
    26   13   38 1
    27   14   15 1
    28   14   39 1
    29   14   40 1
    30   15   16 1
    31   15   41 1
    32   15   42 1
    33   16   21 1
    34   16   17 1
    35   16   57 1
    36   17   18 1
    37   17   43 1
    38   17   44 1
    39   18   19 1
    40   18   45 1
    41   18   46 1
    42   19   20 2
    43   19   22 1
    44   20   21 1
    45   20   47 1
    46   21   48 1
    47   21   49 1
    48   22   27 ar
    49   22   23 ar
    50   23   24 ar
    51   23   50 1
    52   24   25 ar
    53   24   51 1
    54   25   26 ar
    55   25   52 1
    56   26   27 ar
    57   26   53 1
    58   27   54 1
    59   28   55 1
    60   28   56 1
@<TRIPOS>MOLECULE
CHEMBL448924
   29    31     0     0     0
SMALL
USER_CHARGES

@<TRIPOS>ATOM
      1 C1         -0.0167    1.3769    0.0096 C.ar      1 <0>        -0.0861
      2 C2          1.1632    2.0980    0.0022 C.ar      1 <0>        -0.0791
      3 C3          2.3901    1.4397   -0.0135 C.ar      1 <0>        -0.0743
      4 C4          2.4203    0.0291   -0.0214 C.ar      1 <0>         0.0938
      5 C5          1.2109   -0.6850   -0.0132 C.ar      1 <0>         0.0598
      6 C6          0.0021   -0.0041    0.0020 C.ar      1 <0>        -0.0866
      7 N1          1.5594   -2.0218   -0.0239 N.pl3     1 <0>        -0.5992
      8 H1          0.9495   -2.7761   -0.0221 H         1 <0>         0.4211
      9 C7          2.9166   -2.0818   -0.0377 C.2       1 <0>         0.2604
     10 N2          3.4163   -0.8785   -0.0362 N.2       1 <0>        -0.4117
     11 C8          3.7253   -3.3533   -0.0521 C.3       1 <0>         0.0121
     12 C9          4.5344   -3.6902    1.2020 C.3       1 <0>        -0.1239
     13 C10         5.2495   -3.2210   -0.0666 C.3       1 <0>        -0.1111
     14 N3          3.1344   -4.4716   -0.7993 N.4       1 <0>        -0.5980
     15 C11         3.6468    2.2101   -0.0224 C.2       1 <0>         0.5571
     16 O1          4.7155    1.6299   -0.0361 O.2       1 <0>        -0.5140
     17 N4          3.6115    3.5573   -0.0152 N.am      1 <0>        -0.8485
     18 H2         -0.9621    1.8987    0.0260 H         1 <0>         0.1506
     19 H3          1.1329    3.1775    0.0083 H         1 <0>         0.1455
     20 H4         -0.9266   -0.5554    0.0083 H         1 <0>         0.1378
     21 H5          4.4818   -2.9922    2.0375 H         1 <0>         0.1388
     22 H6          4.6283   -4.7418    1.4730 H         1 <0>         0.1351
     23 H7          5.8138   -3.9640   -0.6303 H         1 <0>         0.1351
     24 H8          5.6673   -2.2143   -0.0657 H         1 <0>         0.1517
     25 H9          3.3850   -4.3948   -1.7737 H         1 <0>         0.4441
     26 H10         3.4824   -5.3439   -0.4303 H         1 <0>         0.4460
     27 H11         2.7590    4.0201   -0.0042 H         1 <0>         0.4015
     28 H12         4.4385    4.0642   -0.0210 H         1 <0>         0.4112
     29 H13         2.1300   -4.4443   -0.7071 H         1 <0>         0.4308
@<TRIPOS>BOND
     1    1    6 ar
     2    1    2 ar
     3    1   18 1
     4    2    3 ar
     5    2   19 1
     6    3    4 ar
     7    3   15 1
     8    4   10 1
     9    4    5 ar
    10    5    6 ar
    11    5    7 1
    12    6   20 1
    13    7    8 1
    14    7    9 1
    15    9   10 2
    16    9   11 1
    17   11   13 1
    18   11   12 1
    19   11   14 1
    20   12   13 1
    21   12   21 1
    22   12   22 1
    23   13   23 1
    24   13   24 1
    25   14   25 1
    26   14   26 1
    27   14   29 1
    28   15   16 2
    29   15   17 am
    30   17   27 1
    31   17   28 1
@<TRIPOS>MOLECULE
CHEMBL448924__1
   28    30     0     0     0
SMALL
USER_CHARGES

@<TRIPOS>ATOM
      1 C1         -0.0167    1.3769    0.0096 C.ar      1 <0>        -0.1132
      2 C2          1.1632    2.0980    0.0022 C.ar      1 <0>        -0.0857
      3 C3          2.3901    1.4397   -0.0135 C.ar      1 <0>        -0.0900
      4 C4          2.4203    0.0291   -0.0214 C.ar      1 <0>         0.1036
      5 C5          1.2109   -0.6850   -0.0132 C.ar      1 <0>         0.0355
      6 C6          0.0021   -0.0041    0.0020 C.ar      1 <0>        -0.0787
      7 N1          1.5594   -2.0218   -0.0239 N.pl3     1 <0>        -0.5951
      8 H1          0.9495   -2.7761   -0.0221 H         1 <0>         0.4227
      9 C7          2.9166   -2.0818   -0.0377 C.2       1 <0>         0.3000
     10 N2          3.4163   -0.8785   -0.0362 N.2       1 <0>        -0.4567
     11 C8          3.7253   -3.3533   -0.0521 C.3       1 <0>         0.0849
     12 C9          4.5344   -3.6902    1.2020 C.3       1 <0>        -0.1347
     13 C10         5.2495   -3.2210   -0.0666 C.3       1 <0>        -0.1337
     14 N3          3.1344   -4.4716   -0.7993 N.3       1 <0>        -0.7947
     15 C11         3.6468    2.2101   -0.0224 C.2       1 <0>         0.5575
     16 O1          4.7155    1.6299   -0.0361 O.2       1 <0>        -0.5109
     17 N4          3.6115    3.5573   -0.0152 N.am      1 <0>        -0.8550
     18 H2         -0.9621    1.8987    0.0260 H         1 <0>         0.1404
     19 H3          1.1329    3.1775    0.0083 H         1 <0>         0.1359
     20 H4         -0.9266   -0.5554    0.0083 H         1 <0>         0.1299
     21 H5          4.4818   -2.9922    2.0375 H         1 <0>         0.1001
     22 H6          4.6283   -4.7418    1.4730 H         1 <0>         0.1120
     23 H7          5.8138   -3.9640   -0.6303 H         1 <0>         0.1092
     24 H8          5.6673   -2.2143   -0.0657 H         1 <0>         0.1177
     25 H9          2.1283   -4.4663   -0.7226 H         1 <0>         0.3413
     26 H10         3.4234   -4.4535   -1.7658 H         1 <0>         0.3535
     27 H11         2.7590    4.0201   -0.0042 H         1 <0>         0.3986
     28 H12         4.4385    4.0642   -0.0210 H         1 <0>         0.4056
@<TRIPOS>BOND
     1    1    6 ar
     2    1    2 ar
     3    1   18 1
     4    2    3 ar
     5    2   19 1
     6    3    4 ar
     7    3   15 1
     8    4   10 1
     9    4    5 ar
    10    5    6 ar
    11    5    7 1
    12    6   20 1
    13    7    8 1
    14    7    9 1
    15    9   10 2
    16    9   11 1
    17   11   13 1
    18   11   12 1
    19   11   14 1
    20   12   13 1
    21   12   21 1
    22   12   22 1
    23   13   23 1
    24   13   24 1
    25   14   25 1
    26   14   26 1
    27   15   16 2
    28   15   17 am
    29   17   27 1
    30   17   28 1
@<TRIPOS>MOLECULE
CHEMBL571285
   38    41     0     0     0
SMALL
USER_CHARGES

@<TRIPOS>ATOM
      1 C1         -0.0167    1.3774    0.0096 C.ar      1 <0>        -0.1124
      2 C2          1.1627    2.0989    0.0022 C.ar      1 <0>        -0.0850
      3 C3          2.3901    1.4412   -0.0130 C.ar      1 <0>        -0.0905
      4 C4          2.4210    0.0291   -0.0208 C.ar      1 <0>         0.1060
      5 C5          1.2100   -0.6854   -0.0131 C.ar      1 <0>         0.0405
      6 C6          0.0021   -0.0041    0.0020 C.ar      1 <0>        -0.0790
      7 N1          1.5538   -2.0241   -0.0243 N.pl3     1 <0>        -0.5931
      8 H1          0.9419   -2.7767   -0.0231 H         1 <0>         0.4254
      9 C7          2.9200   -2.0868   -0.0380 C.2       1 <0>         0.3293
     10 N2          3.4185   -0.8722   -0.0358 N.2       1 <0>        -0.4531
     11 C8          3.7144   -3.3325   -0.0523 C.ar      1 <0>        -0.0310
     12 C9          3.0704   -4.5721   -0.0583 C.ar      1 <0>        -0.0946
     13 C10         3.8115   -5.7322   -0.0721 C.ar      1 <0>        -0.1088
     14 C11         5.2051   -5.6702   -0.0797 C.ar      1 <0>        -0.0230
     15 C12         5.8492   -4.4329   -0.0733 C.ar      1 <0>        -0.1091
     16 C13         5.1098   -3.2715   -0.0657 C.ar      1 <0>        -0.0589
     17 C14         6.0023   -6.9204   -0.0940 C.ar      1 <0>        -0.1029
     18 C15         7.3997   -6.8721   -0.0959 C.ar      1 <0>        -0.0642
     19 C16         8.0977   -8.0670   -0.1096 C.ar      1 <0>        -0.1679
     20 C17         7.3973   -9.2598   -0.1209 C.ar      1 <0>         0.1012
     21 N3          6.0784   -9.2740   -0.1187 N.ar      1 <0>        -0.4818
     22 C18         5.3711   -8.1628   -0.1001 C.ar      1 <0>         0.1118
     23 C19         3.6460    2.2119   -0.0213 C.2       1 <0>         0.5578
     24 O1          4.7151    1.6322   -0.0346 O.2       1 <0>        -0.5115
     25 N4          3.6100    3.5591   -0.0142 N.am      1 <0>        -0.8550
     26 H2         -0.9622    1.8991    0.0260 H         1 <0>         0.1404
     27 H3          1.1319    3.1785    0.0079 H         1 <0>         0.1359
     28 H4         -0.9268   -0.5551    0.0082 H         1 <0>         0.1306
     29 H5          1.9915   -4.6203   -0.0517 H         1 <0>         0.1249
     30 H6          3.3138   -6.6907   -0.0767 H         1 <0>         0.1349
     31 H7          6.9281   -4.3859   -0.0788 H         1 <0>         0.1350
     32 H8          5.6087   -2.3136   -0.0656 H         1 <0>         0.1469
     33 H9          7.9211   -5.9263   -0.0873 H         1 <0>         0.1397
     34 H10         9.1777   -8.0683   -0.1119 H         1 <0>         0.1401
     35 H11         7.9389  -10.1941   -0.1319 H         1 <0>         0.1589
     36 H12         4.2923   -8.2151   -0.0942 H         1 <0>         0.1583
     37 H13         2.7573    4.0214   -0.0036 H         1 <0>         0.3986
     38 H14         4.4367    4.0665   -0.0197 H         1 <0>         0.4055
@<TRIPOS>BOND
     1    1    6 ar
     2    1    2 ar
     3    1   26 1
     4    2    3 ar
     5    2   27 1
     6    3    4 ar
     7    3   23 1
     8    4   10 1
     9    4    5 ar
    10    5    6 ar
    11    5    7 1
    12    6   28 1
    13    7    8 1
    14    7    9 1
    15    9   10 2
    16    9   11 1
    17   11   16 ar
    18   11   12 ar
    19   12   13 ar
    20   12   29 1
    21   13   14 ar
    22   13   30 1
    23   14   15 ar
    24   14   17 1
    25   15   16 ar
    26   15   31 1
    27   16   32 1
    28   17   22 ar
    29   17   18 ar
    30   18   19 ar
    31   18   33 1
    32   19   20 ar
    33   19   34 1
    34   20   21 ar
    35   20   35 1
    36   21   22 ar
    37   22   36 1
    38   23   24 2
    39   23   25 am
    40   25   37 1
    41   25   38 1
@<TRIPOS>MOLECULE
CHEMBL577549
   38    41     0     0     0
SMALL
USER_CHARGES

@<TRIPOS>ATOM
      1 C1         -0.0167    1.3774    0.0096 C.ar      1 <0>        -0.1116
      2 C2          1.1628    2.0989    0.0022 C.ar      1 <0>        -0.0850
      3 C3          2.3902    1.4413   -0.0130 C.ar      1 <0>        -0.0898
      4 C4          2.4211    0.0292   -0.0209 C.ar      1 <0>         0.1054
      5 C5          1.2101   -0.6854   -0.0132 C.ar      1 <0>         0.0411
      6 C6          0.0021   -0.0041    0.0020 C.ar      1 <0>        -0.0793
      7 N1          1.5540   -2.0239   -0.0237 N.pl3     1 <0>        -0.5928
      8 H1          0.9421   -2.7766   -0.0219 H         1 <0>         0.4253
      9 C7          2.9201   -2.0866   -0.0371 C.2       1 <0>         0.3273
     10 N2          3.4186   -0.8722   -0.0353 N.2       1 <0>        -0.4516
     11 C8          3.7146   -3.3325   -0.0510 C.ar      1 <0>        -0.0249
     12 C9          3.0707   -4.5719   -0.0569 C.ar      1 <0>        -0.0984
     13 C10         3.8118   -5.7322   -0.0703 C.ar      1 <0>        -0.1016
     14 C11         5.2054   -5.6702   -0.0775 C.ar      1 <0>        -0.0366
     15 C12         5.8494   -4.4328   -0.0711 C.ar      1 <0>        -0.1013
     16 C13         5.1100   -3.2714   -0.0640 C.ar      1 <0>        -0.0619
     17 C14         6.0026   -6.9204   -0.0914 C.ar      1 <0>        -0.0042
     18 C15         5.3773   -8.1709   -0.1033 C.ar      1 <0>        -0.1648
     19 C16         6.1573   -9.3090   -0.1160 C.ar      1 <0>         0.1034
     20 N3          7.4740   -9.2277   -0.1166 N.ar      1 <0>        -0.4854
     21 C17         8.1032   -8.0682   -0.1056 C.ar      1 <0>         0.1043
     22 C18         7.4002   -6.8809   -0.0988 C.ar      1 <0>        -0.1633
     23 C19         3.6460    2.2120   -0.0214 C.2       1 <0>         0.5578
     24 O1          4.7151    1.6325   -0.0347 O.2       1 <0>        -0.5112
     25 N4          3.6099    3.5593   -0.0142 N.am      1 <0>        -0.8549
     26 H2         -0.9622    1.8990    0.0260 H         1 <0>         0.1407
     27 H3          1.1320    3.1785    0.0080 H         1 <0>         0.1361
     28 H4         -0.9268   -0.5551    0.0083 H         1 <0>         0.1308
     29 H5          1.9918   -4.6202   -0.0506 H         1 <0>         0.1253
     30 H6          3.3141   -6.6907   -0.0748 H         1 <0>         0.1350
     31 H7          6.9284   -4.3858   -0.0760 H         1 <0>         0.1372
     32 H8          5.6087   -2.3135   -0.0636 H         1 <0>         0.1481
     33 H9          4.2999   -8.2448   -0.1022 H         1 <0>         0.1380
     34 H10         5.6834  -10.2794   -0.1253 H         1 <0>         0.1589
     35 H11         9.1830   -8.0480   -0.1062 H         1 <0>         0.1597
     36 H12         7.9218   -5.9352   -0.0949 H         1 <0>         0.1400
     37 H13         2.7572    4.0216   -0.0036 H         1 <0>         0.3986
     38 H14         4.4366    4.0667   -0.0197 H         1 <0>         0.4057
@<TRIPOS>BOND
     1    1    6 ar
     2    1    2 ar
     3    1   26 1
     4    2    3 ar
     5    2   27 1
     6    3    4 ar
     7    3   23 1
     8    4   10 1
     9    4    5 ar
    10    5    6 ar
    11    5    7 1
    12    6   28 1
    13    7    8 1
    14    7    9 1
    15    9   10 2
    16    9   11 1
    17   11   16 ar
    18   11   12 ar
    19   12   13 ar
    20   12   29 1
    21   13   14 ar
    22   13   30 1
    23   14   15 ar
    24   14   17 1
    25   15   16 ar
    26   15   31 1
    27   16   32 1
    28   17   22 ar
    29   17   18 ar
    30   18   19 ar
    31   18   33 1
    32   19   20 ar
    33   19   34 1
    34   20   21 ar
    35   21   22 ar
    36   21   35 1
    37   22   36 1
    38   23   24 2
    39   23   25 am
    40   25   37 1
    41   25   38 1
@<TRIPOS>MOLECULE
CHEMBL574147
   35    38     0     0     0
SMALL
USER_CHARGES

@<TRIPOS>ATOM
      1 C1         -0.0167    1.3776    0.0096 C.ar      1 <0>        -0.1130
      2 C2          1.1626    2.0990    0.0022 C.ar      1 <0>        -0.0851
      3 C3          2.3901    1.4411   -0.0134 C.ar      1 <0>        -0.0909
      4 C4          2.4209    0.0290   -0.0213 C.ar      1 <0>         0.1065
      5 C5          1.2098   -0.6854   -0.0131 C.ar      1 <0>         0.0400
      6 C6          0.0021   -0.0041    0.0020 C.ar      1 <0>        -0.0788
      7 N1          1.5535   -2.0244   -0.0240 N.pl3     1 <0>        -0.5932
      8 H1          0.9414   -2.7769   -0.0224 H         1 <0>         0.4255
      9 C7          2.9198   -2.0872   -0.0382 C.2       1 <0>         0.3309
     10 N2          3.4184   -0.8723   -0.0364 N.2       1 <0>        -0.4535
     11 C8          3.7139   -3.3325   -0.0522 C.ar      1 <0>        -0.0290
     12 C9          3.0697   -4.5723   -0.0575 C.ar      1 <0>        -0.1011
     13 C10         3.8104   -5.7322   -0.0710 C.ar      1 <0>        -0.0857
     14 C11         5.2046   -5.6702   -0.0790 C.ar      1 <0>        -0.0029
     15 C12         5.8490   -4.4322   -0.0738 C.ar      1 <0>        -0.1033
     16 C13         5.1098   -3.2713   -0.0660 C.ar      1 <0>        -0.0625
     17 C14         6.0013   -6.9195   -0.0926 C.2       1 <0>         0.0934
     18 C15         7.3717   -6.9017   -0.0955 C.2       1 <0>        -0.2146
     19 S1          7.7237   -8.6520   -0.1130 S.3       1 <0>         0.1213
     20 C16         6.1368   -9.2113   -0.1147 C.2       1 <0>         0.0341
     21 N3          5.4263   -8.1143   -0.0971 N.2       1 <0>        -0.5080
     22 C17         3.6460    2.2116   -0.0223 C.2       1 <0>         0.5579
     23 O1          4.7150    1.6319   -0.0359 O.2       1 <0>        -0.5112
     24 N4          3.6100    3.5589   -0.0152 N.am      1 <0>        -0.8553
     25 H2         -0.9622    1.8992    0.0260 H         1 <0>         0.1401
     26 H3          1.1319    3.1785    0.0083 H         1 <0>         0.1356
     27 H4         -0.9268   -0.5551    0.0079 H         1 <0>         0.1304
     28 H5          1.9908   -4.6205   -0.0506 H         1 <0>         0.1238
     29 H6          3.3126   -6.6906   -0.0751 H         1 <0>         0.1401
     30 H7          6.9279   -4.3852   -0.0796 H         1 <0>         0.1348
     31 H8          5.6085   -2.3134   -0.0661 H         1 <0>         0.1478
     32 H9          8.0505   -6.0617   -0.0896 H         1 <0>         0.2011
     33 H10         5.7882  -10.2335   -0.1236 H         1 <0>         0.2214
     34 H11         2.7574    4.0212   -0.0043 H         1 <0>         0.3985
     35 H12         4.4368    4.0662   -0.0210 H         1 <0>         0.4054
@<TRIPOS>BOND
     1    1    6 ar
     2    1    2 ar
     3    1   25 1
     4    2    3 ar
     5    2   26 1
     6    3    4 ar
     7    3   22 1
     8    4   10 1
     9    4    5 ar
    10    5    6 ar
    11    5    7 1
    12    6   27 1
    13    7    8 1
    14    7    9 1
    15    9   10 2
    16    9   11 1
    17   11   16 ar
    18   11   12 ar
    19   12   13 ar
    20   12   28 1
    21   13   14 ar
    22   13   29 1
    23   14   15 ar
    24   14   17 1
    25   15   16 ar
    26   15   30 1
    27   16   31 1
    28   17   21 1
    29   17   18 2
    30   18   19 1
    31   18   32 1
    32   19   20 1
    33   20   21 2
    34   20   33 1
    35   22   23 2
    36   22   24 am
    37   24   34 1
    38   24   35 1
@<TRIPOS>MOLECULE
CHEMBL576319
   36    39     0     0     0
SMALL
USER_CHARGES

@<TRIPOS>ATOM
      1 C1         -0.0167    1.3776    0.0096 C.ar      1 <0>        -0.1126
      2 C2          1.1626    2.0990    0.0022 C.ar      1 <0>        -0.0849
      3 C3          2.3901    1.4411   -0.0134 C.ar      1 <0>        -0.0911
      4 C4          2.4209    0.0290   -0.0213 C.ar      1 <0>         0.1063
      5 C5          1.2098   -0.6854   -0.0131 C.ar      1 <0>         0.0405
      6 C6          0.0021   -0.0041    0.0020 C.ar      1 <0>        -0.0787
      7 N1          1.5534   -2.0244   -0.0236 N.pl3     1 <0>        -0.5932
      8 H1          0.9414   -2.7769   -0.0215 H         1 <0>         0.4256
      9 C7          2.9199   -2.0872   -0.0375 C.2       1 <0>         0.3304
     10 N2          3.4185   -0.8722   -0.0359 N.2       1 <0>        -0.4544
     11 C8          3.7139   -3.3323   -0.0512 C.ar      1 <0>        -0.0366
     12 C9          3.0691   -4.5723   -0.0565 C.ar      1 <0>        -0.0887
     13 C10         3.8063   -5.7281   -0.0697 C.ar      1 <0>        -0.1028
     14 C11         5.2023   -5.6664   -0.0780 C.ar      1 <0>         0.0128
     15 C12         5.8471   -4.4266   -0.0722 C.ar      1 <0>        -0.1223
     16 C13         5.1100   -3.2707   -0.0648 C.ar      1 <0>        -0.0533
     17 C14         5.9965   -6.9118   -0.0922 C.2       1 <0>         0.0005
     18 C15         5.5150   -8.1858   -0.1047 C.2       1 <0>         0.0098
     19 N3          6.5604   -9.0196   -0.1151 N.2       1 <0>        -0.4937
     20 C16         7.6700   -8.3301   -0.1097 C.2       1 <0>         0.2019
     21 N4          7.3699   -7.0137   -0.1015 N.pl3     1 <0>        -0.5636
     22 H2          8.0025   -6.2784   -0.1005 H         1 <0>         0.4224
     23 C17         3.6459    2.2117   -0.0223 C.2       1 <0>         0.5580
     24 O1          4.7150    1.6320   -0.0359 O.2       1 <0>        -0.5121
     25 N5          3.6100    3.5589   -0.0152 N.am      1 <0>        -0.8551
     26 H3         -0.9622    1.8992    0.0260 H         1 <0>         0.1404
     27 H4          1.1319    3.1786    0.0083 H         1 <0>         0.1358
     28 H5         -0.9268   -0.5551    0.0082 H         1 <0>         0.1308
     29 H6          1.9902   -4.6199   -0.0498 H         1 <0>         0.1265
     30 H7          3.3081   -6.6863   -0.0734 H         1 <0>         0.1375
     31 H8          6.9260   -4.3791   -0.0782 H         1 <0>         0.1251
     32 H9          5.6083   -2.3125   -0.0652 H         1 <0>         0.1463
     33 H10         4.4736   -8.4719   -0.1055 H         1 <0>         0.1748
     34 H11         8.6667   -8.7461   -0.1153 H         1 <0>         0.2134
     35 H12         2.7573    4.0213   -0.0043 H         1 <0>         0.3987
     36 H13         4.4367    4.0662   -0.0210 H         1 <0>         0.4054
@<TRIPOS>BOND
     1    1    6 ar
     2    1    2 ar
     3    1   26 1
     4    2    3 ar
     5    2   27 1
     6    3    4 ar
     7    3   23 1
     8    4   10 1
     9    4    5 ar
    10    5    6 ar
    11    5    7 1
    12    6   28 1
    13    7    8 1
    14    7    9 1
    15    9   10 2
    16    9   11 1
    17   11   16 ar
    18   11   12 ar
    19   12   13 ar
    20   12   29 1
    21   13   14 ar
    22   13   30 1
    23   14   15 ar
    24   14   17 1
    25   15   16 ar
    26   15   31 1
    27   16   32 1
    28   17   21 1
    29   17   18 2
    30   18   19 1
    31   18   33 1
    32   19   20 2
    33   20   21 1
    34   20   34 1
    35   21   22 1
    36   23   24 2
    37   23   25 am
    38   25   35 1
    39   25   36 1
@<TRIPOS>MOLECULE
CHEMBL576319__1
   37    40     0     0     0
SMALL
USER_CHARGES

@<TRIPOS>ATOM
      1 C1         -0.0167    1.3776    0.0096 C.ar      1 <0>        -0.1005
      2 C2          1.1626    2.0990    0.0022 C.ar      1 <0>        -0.0823
      3 C3          2.3901    1.4411   -0.0134 C.ar      1 <0>        -0.0847
      4 C4          2.4209    0.0290   -0.0213 C.ar      1 <0>         0.0997
      5 C5          1.2098   -0.6854   -0.0131 C.ar      1 <0>         0.0504
      6 C6          0.0021   -0.0041    0.0020 C.ar      1 <0>        -0.0823
      7 N1          1.5534   -2.0244   -0.0236 N.pl3     1 <0>        -0.5893
      8 H1          0.9414   -2.7769   -0.0215 H         1 <0>         0.4261
      9 C7          2.9199   -2.0872   -0.0375 C.2       1 <0>         0.2985
     10 N2          3.4185   -0.8722   -0.0359 N.2       1 <0>        -0.4376
     11 C8          3.7139   -3.3323   -0.0512 C.ar      1 <0>         0.0174
     12 C9          3.0691   -4.5723   -0.0565 C.ar      1 <0>        -0.0982
     13 C10         3.8063   -5.7281   -0.0697 C.ar      1 <0>        -0.0741
     14 C11         5.2023   -5.6664   -0.0780 C.ar      1 <0>        -0.0575
     15 C12         5.8471   -4.4266   -0.0722 C.ar      1 <0>        -0.0908
     16 C13         5.1100   -3.2707   -0.0648 C.ar      1 <0>        -0.0622
     17 C14         5.9965   -6.9118   -0.0922 C.2       1 <0>         0.1181
     18 C15         5.5150   -8.1858   -0.1047 C.2       1 <0>         0.0055
     19 N3          6.5604   -9.0196   -0.1151 N.pl3     1 <0>        -0.4684
     20 C16         7.6700   -8.3301   -0.1097 C.cat     1 <0>         0.3080
     21 N4          7.3699   -7.0137   -0.1015 N.pl3     1 <0>        -0.5122
     22 H2          8.0025   -6.2784   -0.1005 H         1 <0>         0.4659
     23 C17         3.6459    2.2117   -0.0223 C.2       1 <0>         0.5588
     24 O1          4.7150    1.6320   -0.0359 O.2       1 <0>        -0.5154
     25 N5          3.6100    3.5589   -0.0152 N.am      1 <0>        -0.8520
     26 H3         -0.9622    1.8992    0.0260 H         1 <0>         0.1451
     27 H4          1.1319    3.1786    0.0083 H         1 <0>         0.1400
     28 H5         -0.9268   -0.5551    0.0082 H         1 <0>         0.1341
     29 H6          1.9902   -4.6199   -0.0498 H         1 <0>         0.1374
     30 H7          3.3081   -6.6863   -0.0734 H         1 <0>         0.1418
     31 H8          6.9260   -4.3791   -0.0782 H         1 <0>         0.1319
     32 H9          5.6083   -2.3125   -0.0652 H         1 <0>         0.1574
     33 H10         4.4736   -8.4719   -0.1055 H         1 <0>         0.2261
     34 H11         8.6667   -8.7461   -0.1153 H         1 <0>         0.2687
     35 H12         2.7573    4.0213   -0.0043 H         1 <0>         0.4003
     36 H13         4.4367    4.0662   -0.0210 H         1 <0>         0.4078
     37 H14         6.5036   -9.9878   -0.1246 H         1 <0>         0.4686
@<TRIPOS>BOND
     1    1    6 ar
     2    1    2 ar
     3    1   26 1
     4    2    3 ar
     5    2   27 1
     6    3    4 ar
     7    3   23 1
     8    4   10 1
     9    4    5 ar
    10    5    6 ar
    11    5    7 1
    12    6   28 1
    13    7    8 1
    14    7    9 1
    15    9   10 2
    16    9   11 1
    17   11   16 ar
    18   11   12 ar
    19   12   13 ar
    20   12   29 1
    21   13   14 ar
    22   13   30 1
    23   14   15 ar
    24   14   17 1
    25   15   16 ar
    26   15   31 1
    27   16   32 1
    28   17   21 1
    29   17   18 2
    30   18   19 1
    31   18   33 1
    32   19   20 2
    33   19   37 1
    34   20   21 1
    35   20   34 1
    36   21   22 1
    37   23   24 2
    38   23   25 am
    39   25   35 1
    40   25   36 1
@<TRIPOS>MOLECULE
CHEMBL576319__2
   36    39     0     0     0
SMALL
USER_CHARGES

@<TRIPOS>ATOM
      1 C1         -0.0167    1.3776    0.0096 C.ar      1 <0>        -0.1147
      2 C2          1.1626    2.0990    0.0022 C.ar      1 <0>        -0.0853
      3 C3          2.3901    1.4411   -0.0130 C.ar      1 <0>        -0.0922
      4 C4          2.4209    0.0290   -0.0208 C.ar      1 <0>         0.1075
      5 C5          1.2099   -0.6854   -0.0131 C.ar      1 <0>         0.0387
      6 C6          0.0021   -0.0041    0.0020 C.ar      1 <0>        -0.0784
      7 N1          1.5535   -2.0244   -0.0239 N.pl3     1 <0>        -0.5940
      8 H1          0.9415   -2.7769   -0.0225 H         1 <0>         0.4254
      9 C7          2.9199   -2.0872   -0.0375 C.2       1 <0>         0.3352
     10 N2          3.4185   -0.8723   -0.0355 N.2       1 <0>        -0.4565
     11 C8          3.7140   -3.3325   -0.0515 C.ar      1 <0>        -0.0401
     12 C9          3.0698   -4.5723   -0.0573 C.ar      1 <0>        -0.0970
     13 C10         3.8106   -5.7322   -0.0708 C.ar      1 <0>        -0.0957
     14 C11         5.2046   -5.6702   -0.0782 C.ar      1 <0>         0.0212
     15 C12         5.8489   -4.4324   -0.0724 C.ar      1 <0>        -0.1135
     16 C13         5.1098   -3.2714   -0.0648 C.ar      1 <0>        -0.0594
     17 C14         6.0015   -6.9198   -0.0917 C.2       1 <0>         0.0275
     18 C15         7.3586   -7.0061   -0.0946 C.2       1 <0>        -0.0270
     19 N3          7.6669   -8.3368   -0.1082 N.pl3     1 <0>        -0.5671
     20 C16         6.5024   -9.0226   -0.1133 C.2       1 <0>         0.1920
     21 N4          5.5111   -8.1766   -0.0976 N.2       1 <0>        -0.4814
     22 H2          8.5582   -8.7194   -0.1133 H         1 <0>         0.4247
     23 C17         3.6460    2.2116   -0.0213 C.2       1 <0>         0.5580
     24 O1          4.7150    1.6319   -0.0346 O.2       1 <0>        -0.5113
     25 N5          3.6100    3.5589   -0.0142 N.am      1 <0>        -0.8557
     26 H3         -0.9622    1.8992    0.0260 H         1 <0>         0.1395
     27 H4          1.1319    3.1785    0.0079 H         1 <0>         0.1350
     28 H5         -0.9268   -0.5551    0.0079 H         1 <0>         0.1300
     29 H6          1.9909   -4.6205   -0.0508 H         1 <0>         0.1219
     30 H7          3.3128   -6.6907   -0.0752 H         1 <0>         0.1380
     31 H8          6.9279   -4.3854   -0.0778 H         1 <0>         0.1316
     32 H9          5.6086   -2.3135   -0.0648 H         1 <0>         0.1452
     33 H10         8.0571   -6.1825   -0.0874 H         1 <0>         0.1828
     34 H11         6.4084  -10.0985   -0.1241 H         1 <0>         0.2120
     35 H12         2.7574    4.0213   -0.0036 H         1 <0>         0.3984
     36 H13         4.4368    4.0662   -0.0197 H         1 <0>         0.4050
@<TRIPOS>BOND
     1    1    6 ar
     2    1    2 ar
     3    1   26 1
     4    2    3 ar
     5    2   27 1
     6    3    4 ar
     7    3   23 1
     8    4   10 1
     9    4    5 ar
    10    5    6 ar
    11    5    7 1
    12    6   28 1
    13    7    8 1
    14    7    9 1
    15    9   10 2
    16    9   11 1
    17   11   16 ar
    18   11   12 ar
    19   12   13 ar
    20   12   29 1
    21   13   14 ar
    22   13   30 1
    23   14   15 ar
    24   14   17 1
    25   15   16 ar
    26   15   31 1
    27   16   32 1
    28   17   21 1
    29   17   18 2
    30   18   33 1
    31   18   19 1
    32   19   20 1
    33   19   22 1
    34   20   34 1
    35   20   21 2
    36   23   24 2
    37   23   25 am
    38   25   35 1
    39   25   36 1
@<TRIPOS>MOLECULE
CHEMBL542692
   58    62     0     0     0
SMALL
USER_CHARGES

@<TRIPOS>ATOM
      1 C1          2.5085    1.4127    0.6321 C.ar      1 <0>        -0.0855
      2 C2          1.4590    2.1018    0.0425 C.ar      1 <0>        -0.1176
      3 C3          0.4195    1.4214   -0.5551 C.ar      1 <0>        -0.0515
      4 C4          0.4240    0.0273   -0.5671 C.ar      1 <0>        -0.1353
      5 C5          1.4918   -0.6712    0.0323 C.ar      1 <0>        -0.0033
      6 C6          2.5313    0.0332    0.6307 C.ar      1 <0>        -0.0914
      7 C7          1.4712   -2.1469    0.0057 C.ar      1 <0>         0.1066
      8 C8          0.3933   -2.7991   -0.6129 C.ar      1 <0>         0.1529
      9 C9          0.3745   -4.1913   -0.6376 C.ar      1 <0>        -0.1208
     10 C10         1.4285   -4.8773   -0.0461 C.ar      1 <0>         0.1297
     11 C11         2.4633   -4.1592    0.5486 C.ar      1 <0>         0.0683
     12 N1          2.4572   -2.8446    0.5573 N.ar      1 <0>        -0.4158
     13 N2          1.4497   -6.2751   -0.0477 N.am      1 <0>        -0.6647
     14 C12         0.2982   -6.9667    0.0620 C.2       1 <0>         0.5159
     15 O1         -0.7629   -6.3794    0.0767 O.2       1 <0>        -0.5024
     16 C13         0.3289   -8.4698    0.1662 C.3       1 <0>         0.0375
     17 N3         -1.0439   -8.9813    0.2749 N.3       1 <0>        -0.5241
     18 C14        -1.6677   -8.5512    1.5328 C.3       1 <0>         0.0495
     19 C15        -3.1376   -8.9770    1.5465 C.3       1 <0>        -0.1326
     20 C16        -3.2243  -10.4993    1.4064 C.3       1 <0>         0.0270
     21 C17        -2.5251  -10.9256    0.1125 C.3       1 <0>        -0.1346
     22 C18        -1.0730  -10.4433    0.1404 C.3       1 <0>         0.0575
     23 N4         -4.6343  -10.9086    1.3602 N.4       1 <0>        -0.3918
     24 C19        -4.7365  -12.3896    1.3121 C.3       1 <0>        -0.0059
     25 C20        -6.1716  -12.6629    1.8281 C.3       1 <0>        -0.1454
     26 C21        -6.3502  -11.5974    2.9339 C.3       1 <0>        -0.1447
     27 C22        -5.3258  -10.4968    2.6010 C.3       1 <0>        -0.0091
     28 N5         -0.6389   -2.0821   -1.1922 N.am      1 <0>        -0.6372
     29 C23        -0.6652   -0.7371   -1.1932 C.2       1 <0>         0.5600
     30 O2         -1.5947   -0.1501   -1.7150 O.2       1 <0>        -0.5097
     31 H1          3.3172    1.9609    1.0925 H         1 <0>         0.1370
     32 H2          1.4560    3.1817    0.0520 H         1 <0>         0.1378
     33 H3         -0.3943    1.9656   -1.0113 H         1 <0>         0.1436
     34 H4          3.3518   -0.4969    1.0913 H         1 <0>         0.1448
     35 H5         -0.4398   -4.7251   -1.1048 H         1 <0>         0.1598
     36 H6          3.2834   -4.6904    1.0088 H         1 <0>         0.1685
     37 H7          2.2933   -6.7473   -0.1276 H         1 <0>         0.4195
     38 H8          0.8024   -8.8861   -0.7229 H         1 <0>         0.1184
     39 H9          0.8962   -8.7612    1.0502 H         1 <0>         0.0785
     40 H10        -1.1480   -9.0130    2.3723 H         1 <0>         0.0431
     41 H11        -1.6030   -7.4665    1.6180 H         1 <0>         0.1131
     42 H12        -3.5962   -8.6714    2.4869 H         1 <0>         0.0913
     43 H13        -3.6610   -8.5047    0.7152 H         1 <0>         0.0970
     44 H14        -2.7345  -10.9719    2.2578 H         1 <0>         0.1326
     45 H15        -2.5461  -12.0121    0.0284 H         1 <0>         0.0937
     46 H16        -3.0389  -10.4839   -0.7413 H         1 <0>         0.0967
     47 H17        -0.5763  -10.7328   -0.7857 H         1 <0>         0.0998
     48 H18        -0.5561  -10.8962    0.9865 H         1 <0>         0.0496
     49 H19        -4.6199  -12.7503    0.2901 H         1 <0>         0.1351
     50 H20        -3.9976  -12.8477    1.9695 H         1 <0>         0.1321
     51 H21        -6.9019  -12.5185    1.0318 H         1 <0>         0.0982
     52 H22        -6.2470  -13.6674    2.2446 H         1 <0>         0.1164
     53 H23        -7.3619  -11.1925    2.9093 H         1 <0>         0.1052
     54 H24        -6.1380  -12.0283    3.9123 H         1 <0>         0.1031
     55 H25        -4.6055  -10.4019    3.4136 H         1 <0>         0.1287
     56 H26        -5.8384   -9.5479    2.4431 H         1 <0>         0.1318
     57 H27        -5.0891  -10.5012    0.5569 H         1 <0>         0.4260
     58 H28        -1.3680   -2.5655   -1.6113 H         1 <0>         0.4169
@<TRIPOS>BOND
     1    1    6 ar
     2    1    2 ar
     3    1   31 1
     4    2    3 ar
     5    2   32 1
     6    3    4 ar
     7    3   33 1
     8    4   29 1
     9    4    5 ar
    10    5    6 ar
    11    5    7 1
    12    6   34 1
    13    7   12 ar
    14    7    8 ar
    15    8    9 ar
    16    8   28 1
    17    9   10 ar
    18    9   35 1
    19   10   11 ar
    20   10   13 1
    21   11   12 ar
    22   11   36 1
    23   13   14 am
    24   13   37 1
    25   14   15 2
    26   14   16 1
    27   16   17 1
    28   16   38 1
    29   16   39 1
    30   17   22 1
    31   17   18 1
    32   18   19 1
    33   18   40 1
    34   18   41 1
    35   19   20 1
    36   19   42 1
    37   19   43 1
    38   20   21 1
    39   20   23 1
    40   20   44 1
    41   21   22 1
    42   21   45 1
    43   21   46 1
    44   22   47 1
    45   22   48 1
    46   23   27 1
    47   23   24 1
    48   23   57 1
    49   24   25 1
    50   24   49 1
    51   24   50 1
    52   25   26 1
    53   25   51 1
    54   25   52 1
    55   26   27 1
    56   26   53 1
    57   26   54 1
    58   27   55 1
    59   27   56 1
    60   28   29 am
    61   28   58 1
    62   29   30 2
@<TRIPOS>MOLECULE
CHEMBL84328
   48    51     0     0     0
SMALL
USER_CHARGES

@<TRIPOS>ATOM
      1 C1         -0.0166    1.3752    0.0096 C.ar      1 <0>        -0.1072
      2 C2          1.1704    2.0863    0.0021 C.ar      1 <0>        -0.0797
      3 C3          2.3827    1.4202   -0.0131 C.ar      1 <0>        -0.1569
      4 C4          2.4154    0.0408   -0.0208 C.ar      1 <0>        -0.0506
      5 C5          1.2219   -0.6823   -0.0133 C.ar      1 <0>        -0.0138
      6 C6          0.0021   -0.0041    0.0020 C.ar      1 <0>        -0.0729
      7 C7          1.2494   -2.1607   -0.0220 C.2       1 <0>         0.3048
      8 N1          0.1463   -2.9685   -0.0213 N.pl3     1 <0>        -0.5893
      9 H1         -0.7798   -2.6800   -0.0156 H         1 <0>         0.4267
     10 C8          0.6002   -4.2739   -0.0311 C.ar      1 <0>         0.0479
     11 C9         -0.0293   -5.5098   -0.0356 C.ar      1 <0>        -0.0800
     12 C10         0.7192   -6.6710   -0.0459 C.ar      1 <0>        -0.1019
     13 C11         2.1009   -6.6195   -0.0519 C.ar      1 <0>        -0.0806
     14 C12         2.7595   -5.3925   -0.0476 C.ar      1 <0>        -0.0891
     15 C13         2.0042   -4.1992   -0.0375 C.ar      1 <0>         0.1015
     16 N2          2.3363   -2.8961   -0.0373 N.2       1 <0>        -0.4468
     17 C14         4.2321   -5.3397   -0.0534 C.2       1 <0>         0.5621
     18 O1          4.8021   -4.2654   -0.0496 O.2       1 <0>        -0.5214
     19 N3          4.9474   -6.4820   -0.0630 N.am      1 <0>        -0.8517
     20 C15         3.6706    2.2028   -0.0217 C.3       1 <0>         0.0438
     21 N4          4.1025    2.4500    1.3604 N.4       1 <0>        -0.3810
     22 C16         4.4194    1.1718    2.0086 C.3       1 <0>        -0.0146
     23 C17         4.7920    1.4163    3.4724 C.3       1 <0>        -0.1435
     24 C18         6.0127    2.3389    3.5355 C.3       1 <0>        -0.1394
     25 C19         5.6961    3.6398    2.7920 C.3       1 <0>        -0.1452
     26 C20         5.2900    3.3128    1.3534 C.3       1 <0>        -0.0073
     27 H2         -0.9597    1.9012    0.0260 H         1 <0>         0.1441
     28 H3          1.1503    3.1661    0.0077 H         1 <0>         0.1377
     29 H4          3.3625   -0.4781   -0.0330 H         1 <0>         0.1508
     30 H5         -0.9251   -0.5579    0.0079 H         1 <0>         0.1329
     31 H6         -1.1079   -5.5646   -0.0307 H         1 <0>         0.1345
     32 H7          0.2201   -7.6287   -0.0490 H         1 <0>         0.1454
     33 H8          2.6724   -7.5358   -0.0596 H         1 <0>         0.1399
     34 H9          4.4928   -7.3389   -0.0661 H         1 <0>         0.4012
     35 H10         5.9168   -6.4472   -0.0669 H         1 <0>         0.4076
     36 H11         4.4382    1.6335   -0.5459 H         1 <0>         0.1389
     37 H12         3.5139    3.1546   -0.5292 H         1 <0>         0.1401
     38 H13         3.5508    0.5151    1.9600 H         1 <0>         0.1300
     39 H14         5.2579    0.7022    1.4943 H         1 <0>         0.1311
     40 H15         3.9540    1.8857    3.9878 H         1 <0>         0.0854
     41 H16         5.0287    0.4663    3.9514 H         1 <0>         0.1113
     42 H17         6.2478    2.5618    4.5762 H         1 <0>         0.0933
     43 H18         6.8650    1.8485    3.0651 H         1 <0>         0.0825
     44 H19         4.8769    4.1553    3.2933 H         1 <0>         0.0866
     45 H20         6.5790    4.2790    2.7847 H         1 <0>         0.1120
     46 H21         6.1099    2.7976    0.8531 H         1 <0>         0.1297
     47 H22         5.0640    4.2368    0.8212 H         1 <0>         0.1303
     48 H23         3.3592    2.9067    1.8674 H         1 <0>         0.4206
@<TRIPOS>BOND
     1    1    6 ar
     2    1    2 ar
     3    1   27 1
     4    2    3 ar
     5    2   28 1
     6    3    4 ar
     7    3   20 1
     8    4    5 ar
     9    4   29 1
    10    5    6 ar
    11    5    7 1
    12    6   30 1
    13    7   16 2
    14    7    8 1
    15    8    9 1
    16    8   10 1
    17   10   15 ar
    18   10   11 ar
    19   11   12 ar
    20   11   31 1
    21   12   13 ar
    22   12   32 1
    23   13   14 ar
    24   13   33 1
    25   14   15 ar
    26   14   17 1
    27   15   16 1
    28   17   18 2
    29   17   19 am
    30   19   34 1
    31   19   35 1
    32   20   21 1
    33   20   36 1
    34   20   37 1
    35   21   26 1
    36   21   22 1
    37   21   48 1
    38   22   23 1
    39   22   38 1
    40   22   39 1
    41   23   24 1
    42   23   40 1
    43   23   41 1
    44   24   25 1
    45   24   42 1
    46   24   43 1
    47   25   26 1
    48   25   44 1
    49   25   45 1
    50   26   46 1
    51   26   47 1
@<TRIPOS>MOLECULE
CHEMBL1092144
   50    53     0     0     0
SMALL
USER_CHARGES

@<TRIPOS>ATOM
      1 C1         -0.0038    1.3689    0.2380 C.ar      1 <0>        -0.1577
      2 C2          1.1731    2.0858    0.2390 C.ar      1 <0>        -0.1153
      3 C3          2.3792    1.4333    0.0064 C.ar      1 <0>         0.1577
      4 C4          2.3909    0.0519   -0.2298 C.ar      1 <0>        -0.0793
      5 C5          1.1903   -0.6680   -0.2277 C.ar      1 <0>        -0.0907
      6 C6          0.0023   -0.0045    0.0068 C.ar      1 <0>         0.0901
      7 O1         -1.1683   -0.6959    0.0119 O.3       1 <0>        -0.2956
      8 C7         -2.3708    0.0653    0.1410 C.3       1 <0>         0.0758
      9 C8         -2.6590    0.3201    1.6233 C.3       1 <0>        -0.1789
     10 C9         -3.9882    1.0663    1.7579 C.3       1 <0>        -0.0026
     11 N1         -5.0682    0.2575    1.1799 N.4       1 <0>        -0.3848
     12 C10        -4.8353    0.0696   -0.2571 C.3       1 <0>        -0.0070
     13 C11        -3.5387   -0.7149   -0.4693 C.3       1 <0>        -0.1431
     14 C12        -6.3521    0.9424    1.3809 C.3       1 <0>        -0.0056
     15 C13        -7.4907    0.0453    0.8914 C.3       1 <0>         0.0439
     16 O2         -7.5565   -1.1277    1.7049 O.3       1 <0>        -0.5804
     17 C14         3.6689   -0.6500   -0.4840 C.2       1 <0>         0.0074
     18 C15         4.7918    0.0839   -0.4979 C.2       1 <0>        -0.1536
     19 C16         4.7225    1.4827   -0.2296 C.2       1 <0>         0.5389
     20 O3          5.7595    2.1232   -0.2136 O.2       1 <0>        -0.5218
     21 N2          3.5732    2.1248    0.0054 N.am      1 <0>        -0.6275
     22 H1          3.5790    3.0797    0.1757 H         1 <0>         0.4209
     23 C17         6.1777   -0.4297   -0.8061 C.3       1 <0>        -0.0331
     24 S1          6.2443   -2.2303   -0.5985 S.3       1 <0>        -0.2337
     25 C18         4.7124   -2.7522   -1.4351 C.3       1 <0>        -0.0885
     26 C19         3.5456   -2.1330   -0.6793 C.3       1 <0>        -0.0923
     27 H2         -0.9393    1.8760    0.4225 H         1 <0>         0.1345
     28 H3          1.1590    3.1506    0.4195 H         1 <0>         0.1427
     29 H4          1.1933   -1.7329   -0.4076 H         1 <0>         0.1506
     30 H5         -2.2573    1.0170   -0.3783 H         1 <0>         0.0913
     31 H6         -2.7208   -0.6317    2.1509 H         1 <0>         0.1037
     32 H7         -1.8582    0.9230    2.0514 H         1 <0>         0.1191
     33 H8         -4.1963    1.2495    2.8120 H         1 <0>         0.1382
     34 H9         -3.9252    2.0179    1.2302 H         1 <0>         0.1313
     35 H10        -5.6689   -0.4830   -0.6906 H         1 <0>         0.1390
     36 H11        -4.7542    1.0425   -0.7419 H         1 <0>         0.1328
     37 H12        -3.3667   -0.8518   -1.5369 H         1 <0>         0.1231
     38 H13        -3.6188   -1.6881    0.0149 H         1 <0>         0.1024
     39 H14        -6.4879    1.1558    2.4412 H         1 <0>         0.1399
     40 H15        -6.3578    1.8761    0.8187 H         1 <0>         0.1431
     41 H16        -8.4343    0.5870    0.9579 H         1 <0>         0.0962
     42 H17        -7.3083   -0.2407   -0.1445 H         1 <0>         0.0723
     43 H18        -8.2575   -1.7435    1.4512 H         1 <0>         0.4103
     44 H19         6.4363   -0.1754   -1.8340 H         1 <0>         0.1067
     45 H20         6.8941    0.0379   -0.1307 H         1 <0>         0.1306
     46 H21         4.7149   -2.3990   -2.4662 H         1 <0>         0.0924
     47 H22         4.6315   -3.8390   -1.4152 H         1 <0>         0.1212
     48 H23         3.4735   -2.6079    0.2992 H         1 <0>         0.1054
     49 H24         2.6272   -2.3363   -1.2299 H         1 <0>         0.0974
     50 H25        -5.0942   -0.6422    1.6358 H         1 <0>         0.4327
@<TRIPOS>BOND
     1    1    6 ar
     2    1    2 ar
     3    1   27 1
     4    2    3 ar
     5    2   28 1
     6    3   21 1
     7    3    4 ar
     8    4    5 ar
     9    4   17 1
    10    5    6 ar
    11    5   29 1
    12    6    7 1
    13    7    8 1
    14    8   13 1
    15    8    9 1
    16    8   30 1
    17    9   10 1
    18    9   31 1
    19    9   32 1
    20   10   11 1
    21   10   33 1
    22   10   34 1
    23   11   12 1
    24   11   14 1
    25   11   50 1
    26   12   13 1
    27   12   35 1
    28   12   36 1
    29   13   37 1
    30   13   38 1
    31   14   15 1
    32   14   39 1
    33   14   40 1
    34   15   16 1
    35   15   41 1
    36   15   42 1
    37   16   43 1
    38   17   26 1
    39   17   18 2
    40   18   19 1
    41   18   23 1
    42   19   20 2
    43   19   21 am
    44   21   22 1
    45   23   24 1
    46   23   44 1
    47   23   45 1
    48   24   25 1
    49   25   26 1
    50   25   46 1
    51   25   47 1
    52   26   48 1
    53   26   49 1
@<TRIPOS>MOLECULE
CHEMBL479861
   53    57     0     0     0
SMALL
USER_CHARGES

@<TRIPOS>ATOM
      1 C1         -2.4243   -5.0714   -1.8997 C.3       1 <0>        -0.0625
      2 C2         -1.5028   -4.1161   -1.1860 C.2       1 <0>        -0.1550
      3 C3         -1.8032   -2.9222   -0.5851 C.2       1 <0>        -0.0288
      4 N1         -0.8319   -2.2298   -0.0062 N.2       1 <0>        -0.4557
      5 C4          0.3934   -2.7216   -0.0322 C.2       1 <0>         0.1089
      6 S1          0.1537   -4.2505   -0.9199 S.3       1 <0>         0.1703
      7 C5          1.6382   -2.1552    0.5314 C.ar      1 <0>        -0.0152
      8 C6          2.8462   -2.8385    0.3886 C.ar      1 <0>        -0.0952
      9 C7          4.0039   -2.3049    0.9166 C.ar      1 <0>        -0.1156
     10 C8          3.9685   -1.0949    1.5864 C.ar      1 <0>        -0.1001
     11 C9          2.7738   -0.4126    1.7318 C.ar      1 <0>        -0.1185
     12 C10         1.6103   -0.9325    1.2030 C.ar      1 <0>        -0.0730
     13 C11        -3.1858   -2.4146   -0.5825 C.2       1 <0>         0.5938
     14 O1         -4.0703   -3.0565   -1.1164 O.2       1 <0>        -0.5103
     15 N2         -3.4709   -1.2388    0.0115 N.am      1 <0>        -0.6584
     16 C12        -4.7630   -0.7099   -0.0691 C.ar      1 <0>         0.1448
     17 C13        -4.9484    0.6637   -0.1612 C.ar      1 <0>        -0.1407
     18 C14        -6.2255    1.1828   -0.2411 C.ar      1 <0>        -0.0985
     19 C15        -7.3194    0.3366   -0.2291 C.ar      1 <0>        -0.1171
     20 C16        -7.1384   -1.0310   -0.1376 C.ar      1 <0>        -0.0600
     21 C17        -5.8634   -1.5570   -0.0631 C.ar      1 <0>        -0.1033
     22 C18        -8.3334   -1.9492   -0.1244 C.3       1 <0>        -0.0171
     23 C19        -8.6798   -2.3432   -1.5371 C.2       1 <0>         0.1382
     24 C20        -9.8142   -3.2313   -1.7914 C.ar      1 <0>        -0.0572
     25 C21       -10.6019   -3.7358   -0.7550 C.ar      1 <0>        -0.0983
     26 C22       -11.6518   -4.5621   -1.0437 C.ar      1 <0>        -0.0877
     27 C23       -11.9473   -4.9088   -2.3558 C.ar      1 <0>        -0.1126
     28 C24       -11.1872   -4.4266   -3.3988 C.ar      1 <0>        -0.0547
     29 C25       -10.1119   -3.5813   -3.1283 C.ar      1 <0>        -0.1264
     30 C26        -9.2648   -3.0337   -4.1950 C.2       1 <0>         0.5282
     31 O2         -9.4825   -3.3065   -5.3620 O.2       1 <0>        -0.5242
     32 N3         -8.2408   -2.2221   -3.8582 N.am      1 <0>        -0.5329
     33 H1         -7.6775   -1.8572   -4.5585 H         1 <0>         0.4358
     34 N4         -7.9739   -1.8897   -2.5298 N.2       1 <0>        -0.2125
     35 H2         -1.8539   -5.9298   -2.2544 H         1 <0>         0.0739
     36 H3         -3.2000   -5.4095   -1.2126 H         1 <0>         0.0940
     37 H4         -2.8855   -4.5659   -2.7481 H         1 <0>         0.0940
     38 H5          2.8751   -3.7833   -0.1339 H         1 <0>         0.1268
     39 H6          4.9395   -2.8330    0.8070 H         1 <0>         0.1323
     40 H7          4.8774   -0.6814    1.9979 H         1 <0>         0.1293
     41 H8          2.7526    0.5312    2.2564 H         1 <0>         0.1317
     42 H9          0.6791   -0.3966    1.3129 H         1 <0>         0.1344
     43 H10        -2.7799   -0.7595    0.4949 H         1 <0>         0.4186
     44 H11        -4.0945    1.3250   -0.1699 H         1 <0>         0.1238
     45 H12        -6.3702    2.2506   -0.3127 H         1 <0>         0.1262
     46 H13        -8.3173    0.7452   -0.2910 H         1 <0>         0.1214
     47 H14        -5.7225   -2.6257    0.0039 H         1 <0>         0.1368
     48 H15        -8.0989   -2.8423    0.4548 H         1 <0>         0.1046
     49 H16        -9.1815   -1.4352    0.3278 H         1 <0>         0.1063
     50 H17       -10.3827   -3.4747    0.2698 H         1 <0>         0.1414
     51 H18       -12.2598   -4.9512   -0.2403 H         1 <0>         0.1360
     52 H19       -12.7814   -5.5635   -2.5606 H         1 <0>         0.1368
     53 H20       -11.4222   -4.7008   -4.4167 H         1 <0>         0.1429
@<TRIPOS>BOND
     1    1    2 1
     2    1   35 1
     3    1   36 1
     4    1   37 1
     5    2    6 1
     6    2    3 2
     7    3    4 1
     8    3   13 1
     9    4    5 2
    10    5    6 1
    11    5    7 1
    12    7   12 ar
    13    7    8 ar
    14    8    9 ar
    15    8   38 1
    16    9   10 ar
    17    9   39 1
    18   10   11 ar
    19   10   40 1
    20   11   12 ar
    21   11   41 1
    22   12   42 1
    23   13   14 2
    24   13   15 am
    25   15   16 1
    26   15   43 1
    27   16   21 ar
    28   16   17 ar
    29   17   18 ar
    30   17   44 1
    31   18   19 ar
    32   18   45 1
    33   19   20 ar
    34   19   46 1
    35   20   21 ar
    36   20   22 1
    37   21   47 1
    38   22   23 1
    39   22   48 1
    40   22   49 1
    41   23   34 2
    42   23   24 1
    43   24   29 ar
    44   24   25 ar
    45   25   26 ar
    46   25   50 1
    47   26   27 ar
    48   26   51 1
    49   27   28 ar
    50   27   52 1
    51   28   29 ar
    52   28   53 1
    53   29   30 1
    54   30   31 2
    55   30   32 am
    56   32   33 1
    57   32   34 1
@<TRIPOS>MOLECULE
CHEMBL565882
   35    38     0     0     0
SMALL
USER_CHARGES

@<TRIPOS>ATOM
      1 C1         -0.0167    1.3776    0.0096 C.ar      1 <0>        -0.1113
      2 C2          1.1626    2.0990    0.0022 C.ar      1 <0>        -0.0849
      3 C3          2.3901    1.4412   -0.0135 C.ar      1 <0>        -0.0895
      4 C4          2.4209    0.0290   -0.0214 C.ar      1 <0>         0.1055
      5 C5          1.2099   -0.6854   -0.0132 C.ar      1 <0>         0.0417
      6 C6          0.0021   -0.0041    0.0020 C.ar      1 <0>        -0.0794
      7 N1          1.5534   -2.0243   -0.0238 N.pl3     1 <0>        -0.5927
      8 H1          0.9414   -2.7769   -0.0221 H         1 <0>         0.4256
      9 C7          2.9199   -2.0872   -0.0377 C.2       1 <0>         0.3265
     10 N2          3.4185   -0.8722   -0.0362 N.2       1 <0>        -0.4505
     11 C8          3.7139   -3.3322   -0.0523 C.ar      1 <0>        -0.0242
     12 C9          3.0691   -4.5722   -0.0583 C.ar      1 <0>        -0.0955
     13 C10         3.8061   -5.7280   -0.0719 C.ar      1 <0>        -0.0989
     14 C11         5.2024   -5.6664   -0.0797 C.ar      1 <0>         0.0043
     15 C12         5.8472   -4.4264   -0.0736 C.ar      1 <0>        -0.0946
     16 C13         5.1101   -3.2705   -0.0659 C.ar      1 <0>        -0.0579
     17 C14         5.9962   -6.9112   -0.0938 C.2       1 <0>        -0.0124
     18 C15         7.3519   -7.0076   -0.0970 C.2       1 <0>        -0.0113
     19 N3          7.6633   -8.3116   -0.1104 N.2       1 <0>        -0.4860
     20 C16         6.5617   -9.0094   -0.1154 C.2       1 <0>         0.1811
     21 O1          5.5145   -8.1739   -0.1000 O.3       1 <0>        -0.1984
     22 C17         3.6459    2.2117   -0.0223 C.2       1 <0>         0.5577
     23 O2          4.7150    1.6321   -0.0361 O.2       1 <0>        -0.5110
     24 N4          3.6099    3.5590   -0.0152 N.am      1 <0>        -0.8550
     25 H2         -0.9622    1.8992    0.0260 H         1 <0>         0.1407
     26 H3          1.1319    3.1785    0.0083 H         1 <0>         0.1362
     27 H4         -0.9268   -0.5551    0.0083 H         1 <0>         0.1308
     28 H5          1.9901   -4.6198   -0.0520 H         1 <0>         0.1270
     29 H6          3.3078   -6.6862   -0.0762 H         1 <0>         0.1362
     30 H7          6.9262   -4.3787   -0.0796 H         1 <0>         0.1404
     31 H8          5.6083   -2.3123   -0.0660 H         1 <0>         0.1522
     32 H9          8.0507   -6.1842   -0.0900 H         1 <0>         0.1893
     33 H10         6.5030  -10.0877   -0.1263 H         1 <0>         0.2540
     34 H11         2.7573    4.0213   -0.0042 H         1 <0>         0.3986
     35 H12         4.4367    4.0663   -0.0210 H         1 <0>         0.4057
@<TRIPOS>BOND
     1    1    6 ar
     2    1    2 ar
     3    1   25 1
     4    2    3 ar
     5    2   26 1
     6    3    4 ar
     7    3   22 1
     8    4   10 1
     9    4    5 ar
    10    5    6 ar
    11    5    7 1
    12    6   27 1
    13    7    8 1
    14    7    9 1
    15    9   10 2
    16    9   11 1
    17   11   16 ar
    18   11   12 ar
    19   12   13 ar
    20   12   28 1
    21   13   14 ar
    22   13   29 1
    23   14   15 ar
    24   14   17 1
    25   15   16 ar
    26   15   30 1
    27   16   31 1
    28   17   21 1
    29   17   18 2
    30   18   19 1
    31   18   32 1
    32   19   20 2
    33   20   21 1
    34   20   33 1
    35   22   23 2
    36   22   24 am
    37   24   34 1
    38   24   35 1
@<TRIPOS>MOLECULE
CHEMBL565881
   36    39     0     0     0
SMALL
USER_CHARGES

@<TRIPOS>ATOM
      1 C1         -0.0167    1.3774    0.0096 C.ar      1 <0>        -0.1124
      2 C2          1.1627    2.0990    0.0022 C.ar      1 <0>        -0.0850
      3 C3          2.3902    1.4413   -0.0134 C.ar      1 <0>        -0.0907
      4 C4          2.4211    0.0291   -0.0213 C.ar      1 <0>         0.1058
      5 C5          1.2101   -0.6854   -0.0131 C.ar      1 <0>         0.0411
      6 C6          0.0021   -0.0041    0.0020 C.ar      1 <0>        -0.0787
      7 N1          1.5537   -2.0240   -0.0240 N.pl3     1 <0>        -0.5923
      8 H1          0.9418   -2.7767   -0.0224 H         1 <0>         0.4261
      9 C7          2.9201   -2.0868   -0.0382 C.2       1 <0>         0.3289
     10 N2          3.4186   -0.8721   -0.0364 N.2       1 <0>        -0.4529
     11 C8          3.7144   -3.3323   -0.0527 C.ar      1 <0>        -0.0265
     12 C9          3.0698   -4.5720   -0.0586 C.ar      1 <0>        -0.0959
     13 C10         3.8098   -5.7321   -0.0726 C.ar      1 <0>        -0.0778
     14 C11         5.2054   -5.6704   -0.0805 C.ar      1 <0>         0.0075
     15 C12         5.8500   -4.4310   -0.0743 C.ar      1 <0>        -0.1122
     16 C13         5.1102   -3.2707   -0.0665 C.ar      1 <0>        -0.0586
     17 C14         6.0000   -6.9163   -0.0951 C.2       1 <0>         0.2341
     18 N3          7.3624   -6.9952   -0.0985 N.pl3     1 <0>        -0.5618
     19 H2          7.9835   -6.2502   -0.0918 H         1 <0>         0.4221
     20 C15         7.6861   -8.3243   -0.1126 C.2       1 <0>        -0.0387
     21 C16         6.5260   -9.0138   -0.1174 C.2       1 <0>        -0.0240
     22 N4          5.5152   -8.1387   -0.1013 N.2       1 <0>        -0.4689
     23 C17         3.6460    2.2120   -0.0223 C.2       1 <0>         0.5580
     24 O1          4.7151    1.6324   -0.0359 O.2       1 <0>        -0.5119
     25 N5          3.6099    3.5592   -0.0152 N.am      1 <0>        -0.8551
     26 H3         -0.9622    1.8990    0.0260 H         1 <0>         0.1404
     27 H4          1.1319    3.1785    0.0083 H         1 <0>         0.1357
     28 H5         -0.9268   -0.5551    0.0079 H         1 <0>         0.1309
     29 H6          1.9909   -4.6197   -0.0517 H         1 <0>         0.1279
     30 H7          3.3116   -6.6903   -0.0771 H         1 <0>         0.1455
     31 H8          6.9289   -4.3834   -0.0797 H         1 <0>         0.1276
     32 H9          5.6084   -2.3125   -0.0661 H         1 <0>         0.1488
     33 H10         8.6818   -8.7427   -0.1190 H         1 <0>         0.1830
     34 H11         6.4304  -10.0895   -0.1287 H         1 <0>         0.1757
     35 H12         2.7572    4.0215   -0.0043 H         1 <0>         0.3986
     36 H13         4.4366    4.0666   -0.0210 H         1 <0>         0.4054
@<TRIPOS>BOND
     1    1    6 ar
     2    1    2 ar
     3    1   26 1
     4    2    3 ar
     5    2   27 1
     6    3    4 ar
     7    3   23 1
     8    4   10 1
     9    4    5 ar
    10    5    6 ar
    11    5    7 1
    12    6   28 1
    13    7    8 1
    14    7    9 1
    15    9   10 2
    16    9   11 1
    17   11   16 ar
    18   11   12 ar
    19   12   13 ar
    20   12   29 1
    21   13   14 ar
    22   13   30 1
    23   14   15 ar
    24   14   17 1
    25   15   16 ar
    26   15   31 1
    27   16   32 1
    28   17   22 2
    29   17   18 1
    30   18   19 1
    31   18   20 1
    32   20   21 2
    33   20   33 1
    34   21   22 1
    35   21   34 1
    36   23   24 2
    37   23   25 am
    38   25   35 1
    39   25   36 1
@<TRIPOS>MOLECULE
CHEMBL565881__1
   37    40     0     0     0
SMALL
USER_CHARGES

@<TRIPOS>ATOM
      1 C1         -0.0167    1.3774    0.0096 C.ar      1 <0>        -0.0969
      2 C2          1.1628    2.0989    0.0022 C.ar      1 <0>        -0.0819
      3 C3          2.3902    1.4413   -0.0130 C.ar      1 <0>        -0.0821
      4 C4          2.4211    0.0292   -0.0208 C.ar      1 <0>         0.0978
      5 C5          1.2101   -0.6854   -0.0131 C.ar      1 <0>         0.0541
      6 C6          0.0021   -0.0041    0.0020 C.ar      1 <0>        -0.0835
      7 N1          1.5539   -2.0239   -0.0239 N.pl3     1 <0>        -0.5877
      8 H1          0.9420   -2.7766   -0.0225 H         1 <0>         0.4266
      9 C7          2.9201   -2.0866   -0.0375 C.2       1 <0>         0.2889
     10 N2          3.4186   -0.8720   -0.0355 N.2       1 <0>        -0.4308
     11 C8          3.7145   -3.3323   -0.0518 C.ar      1 <0>         0.0384
     12 C9          3.0701   -4.5719   -0.0578 C.ar      1 <0>        -0.0979
     13 C10         3.8102   -5.7321   -0.0711 C.ar      1 <0>        -0.0681
     14 C11         5.2056   -5.6704   -0.0780 C.ar      1 <0>        -0.0872
     15 C12         5.8501   -4.4312   -0.0720 C.ar      1 <0>        -0.0678
     16 C13         5.1102   -3.2707   -0.0650 C.ar      1 <0>        -0.0619
     17 C14         6.0004   -6.9167   -0.0913 C.cat     1 <0>         0.3729
     18 N3          5.5067   -8.1547   -0.1034 N.pl3     1 <0>        -0.4890
     19 H2          4.5662   -8.3923   -0.1051 H         1 <0>         0.4635
     20 C15         6.5400   -9.0186   -0.1135 C.2       1 <0>         0.0214
     21 C16         7.6787   -8.2925   -0.1073 C.2       1 <0>         0.0230
     22 N4          7.3312   -6.9912   -0.0989 N.pl3     1 <0>        -0.4878
     23 C17         3.6460    2.2121   -0.0213 C.2       1 <0>         0.5587
     24 O1          4.7151    1.6325   -0.0346 O.2       1 <0>        -0.5153
     25 N5          3.6099    3.5593   -0.0142 N.am      1 <0>        -0.8513
     26 H3         -0.9622    1.8990    0.0260 H         1 <0>         0.1463
     27 H4          1.1320    3.1785    0.0079 H         1 <0>         0.1412
     28 H5         -0.9268   -0.5551    0.0079 H         1 <0>         0.1351
     29 H6          1.9912   -4.6196   -0.0517 H         1 <0>         0.1430
     30 H7          3.3121   -6.6903   -0.0757 H         1 <0>         0.1390
     31 H8          6.9290   -4.3837   -0.0770 H         1 <0>         0.1413
     32 H9          5.6085   -2.3125   -0.0649 H         1 <0>         0.1651
     33 H10         6.4705  -10.0963   -0.1245 H         1 <0>         0.2295
     34 H11         8.6852   -8.6841   -0.1124 H         1 <0>         0.2298
     35 H12         2.7572    4.0216   -0.0036 H         1 <0>         0.4006
     36 H13         4.4366    4.0667   -0.0197 H         1 <0>         0.4084
     37 H14         7.9433   -6.2387   -0.0967 H         1 <0>         0.4648
@<TRIPOS>BOND
     1    1    6 ar
     2    1    2 ar
     3    1   26 1
     4    2    3 ar
     5    2   27 1
     6    3    4 ar
     7    3   23 1
     8    4   10 1
     9    4    5 ar
    10    5    6 ar
    11    5    7 1
    12    6   28 1
    13    7    8 1
    14    7    9 1
    15    9   10 2
    16    9   11 1
    17   11   16 ar
    18   11   12 ar
    19   12   13 ar
    20   12   29 1
    21   13   14 ar
    22   13   30 1
    23   14   15 ar
    24   14   17 1
    25   15   16 ar
    26   15   31 1
    27   16   32 1
    28   17   22 2
    29   17   18 1
    30   18   19 1
    31   18   20 1
    32   20   21 2
    33   20   33 1
    34   21   22 1
    35   21   34 1
    36   22   37 1
    37   23   24 2
    38   23   25 am
    39   25   35 1
    40   25   36 1
@<TRIPOS>MOLECULE
CHEMBL543157
   39    41     0     0     0
SMALL
USER_CHARGES

@<TRIPOS>ATOM
      1 C1         -5.1121    1.3679    0.4419 C.3       1 <0>        -0.0470
      2 N1         -5.0979   -0.0795    0.1915 N.4       1 <0>        -0.3733
      3 C2         -5.7944   -0.3651   -1.0700 C.3       1 <0>        -0.0607
      4 C3         -3.7083   -0.5472    0.1003 C.3       1 <0>        -0.0309
      5 C4         -3.6912   -2.0481   -0.0337 C.2       1 <0>         0.4947
      6 O1         -4.7339   -2.6673   -0.0515 O.2       1 <0>        -0.4651
      7 N2         -2.5171   -2.7023   -0.1337 N.am      1 <0>        -0.6362
      8 C5         -2.4951   -4.0968   -0.1509 C.ar      1 <0>         0.3178
      9 C6         -1.2716   -4.7648   -0.1474 C.ar      1 <0>        -0.1450
     10 C7         -1.2513   -6.1450   -0.1643 C.ar      1 <0>        -0.0847
     11 C8         -2.4677   -6.8302   -0.1846 C.ar      1 <0>         0.1239
     12 C9         -3.6597   -6.0940   -0.1870 C.ar      1 <0>         0.1494
     13 N3         -3.6333   -4.7655   -0.1648 N.ar      1 <0>        -0.4315
     14 C10        -4.9463   -6.8178   -0.2086 C.ar      1 <0>        -0.0106
     15 C11        -6.1627   -6.1436   -0.2125 C.ar      1 <0>        -0.0869
     16 C12        -7.3408   -6.8615   -0.2335 C.ar      1 <0>        -0.0907
     17 C13        -7.3219   -8.2482   -0.2506 C.ar      1 <0>        -0.1123
     18 C14        -6.1261   -8.9345   -0.2466 C.ar      1 <0>        -0.0515
     19 C15        -4.9250   -8.2271   -0.2260 C.ar      1 <0>        -0.1279
     20 C16        -3.6275   -8.9198   -0.2220 C.2       1 <0>         0.5567
     21 N4         -2.4819   -8.2148   -0.2024 N.am      1 <0>        -0.6368
     22 O2         -3.5901  -10.1360   -0.2363 O.2       1 <0>        -0.5023
     23 H1         -6.1432    1.7149    0.5096 H         1 <0>         0.1306
     24 H2         -4.5953    1.5798    1.3779 H         1 <0>         0.1256
     25 H3         -4.6083    1.8830   -0.3760 H         1 <0>         0.1248
     26 H4         -6.8255   -0.0181   -1.0023 H         1 <0>         0.1277
     27 H5         -5.2906    0.1501   -1.8878 H         1 <0>         0.1199
     28 H6         -5.7839   -1.4391   -1.2558 H         1 <0>         0.1399
     29 H7         -3.2306   -0.0991   -0.7710 H         1 <0>         0.1617
     30 H8         -3.1674   -0.2566    1.0009 H         1 <0>         0.1630
     31 H9         -1.6875   -2.2034   -0.1938 H         1 <0>         0.4279
     32 H10        -0.3470   -4.2070   -0.1318 H         1 <0>         0.1519
     33 H11        -0.3149   -6.6831   -0.1623 H         1 <0>         0.1581
     34 H12        -6.1850   -5.0639   -0.1989 H         1 <0>         0.1449
     35 H13        -8.2860   -6.3391   -0.2362 H         1 <0>         0.1350
     36 H14        -8.2527   -8.7957   -0.2669 H         1 <0>         0.1391
     37 H15        -6.1199  -10.0144   -0.2593 H         1 <0>         0.1462
     38 H16        -1.6376   -8.6924   -0.2004 H         1 <0>         0.4204
     39 H17        -5.5643   -0.5564    0.9486 H         1 <0>         0.4345
@<TRIPOS>BOND
     1    1    2 1
     2    1   23 1
     3    1   24 1
     4    1   25 1
     5    2    3 1
     6    2    4 1
     7    2   39 1
     8    3   26 1
     9    3   27 1
    10    3   28 1
    11    4    5 1
    12    4   29 1
    13    4   30 1
    14    5    6 2
    15    5    7 am
    16    7    8 1
    17    7   31 1
    18    8   13 ar
    19    8    9 ar
    20    9   10 ar
    21    9   32 1
    22   10   11 ar
    23   10   33 1
    24   11   21 1
    25   11   12 ar
    26   12   13 ar
    27   12   14 1
    28   14   19 ar
    29   14   15 ar
    30   15   16 ar
    31   15   34 1
    32   16   17 ar
    33   16   35 1
    34   17   18 ar
    35   17   36 1
    36   18   19 ar
    37   18   37 1
    38   19   20 1
    39   20   21 am
    40   20   22 2
    41   21   38 1
@<TRIPOS>MOLECULE
CHEMBL481478
   47    49     0     0     0
SMALL
USER_CHARGES

@<TRIPOS>ATOM
      1 C1         -0.0187    1.5258    0.0104 C.3       1 <0>        -0.1649
      2 C2          0.0021   -0.0041    0.0020 C.3       1 <0>        -0.0027
      3 C3          0.7182   -0.4975   -1.2568 C.3       1 <0>        -0.1448
      4 C4          2.1873   -0.0730   -1.2073 C.3       1 <0>        -0.0125
      5 N1          2.8749   -0.5468   -2.4159 N.4       1 <0>        -0.5060
      6 C5          4.2854   -0.1392   -2.3683 C.3       1 <0>         0.0199
      7 C6          4.3969    1.3943   -2.4934 C.3       1 <0>        -0.1429
      8 C7          5.6695    1.6141   -3.3486 C.3       1 <0>        -0.1256
      9 C8          5.5943    0.4581   -4.3768 C.3       1 <0>        -0.1312
     10 C9          5.0467   -0.7345   -3.5657 C.3       1 <0>        -0.1450
     11 C10        -1.4117   -0.5257    0.0127 C.2       1 <0>         0.2715
     12 N2         -2.4632    0.0606   -0.6170 N.pl3     1 <0>        -0.5929
     13 H1         -2.4380    0.8745   -1.1441 H         1 <0>         0.4232
     14 C11        -3.5751   -0.7202   -0.3660 C.ar      1 <0>         0.0410
     15 C12        -4.9112   -0.6405   -0.7312 C.ar      1 <0>        -0.0822
     16 C13        -5.8049   -1.6051   -0.3088 C.ar      1 <0>        -0.1035
     17 C14        -5.3834   -2.6597    0.4801 C.ar      1 <0>        -0.0828
     18 C15        -4.0480   -2.7639    0.8606 C.ar      1 <0>        -0.0868
     19 C16        -3.1270   -1.7835    0.4348 C.ar      1 <0>         0.0982
     20 N3         -1.8041   -1.6081    0.6226 N.2       1 <0>        -0.4535
     21 C17        -3.6003   -3.8890    1.7011 C.2       1 <0>         0.5583
     22 O1         -2.4329   -3.9751    2.0305 O.2       1 <0>        -0.5160
     23 N4         -4.4849   -4.8224    2.1047 N.am      1 <0>        -0.8523
     24 H2          1.0039    1.9031    0.0027 H         1 <0>         0.0752
     25 H3         -0.5459    1.8868   -0.8726 H         1 <0>         0.0620
     26 H4         -0.5289    1.8773    0.9072 H         1 <0>         0.0779
     27 H5          0.5293   -0.3651    0.8851 H         1 <0>         0.1214
     28 H6          0.6556   -1.5845   -1.3079 H         1 <0>         0.0994
     29 H7          0.2444   -0.0644   -2.1377 H         1 <0>         0.0889
     30 H8          2.2499    1.0140   -1.1561 H         1 <0>         0.1355
     31 H9          2.6611   -0.5061   -0.3263 H         1 <0>         0.1385
     32 H10         2.8170   -1.5530   -2.4632 H         1 <0>         0.4294
     33 H11         4.7388   -0.4724   -1.4347 H         1 <0>         0.1443
     34 H12         3.5217    1.8003   -3.0006 H         1 <0>         0.0867
     35 H13         4.5147    1.8497   -1.5102 H         1 <0>         0.0982
     36 H14         5.6351    2.5808   -3.8510 H         1 <0>         0.0883
     37 H15         6.5666    1.5280   -2.7355 H         1 <0>         0.0841
     38 H16         4.9124    0.7129   -5.1881 H         1 <0>         0.0775
     39 H17         6.5859    0.2303   -4.7679 H         1 <0>         0.0877
     40 H18         5.8701   -1.3558   -3.2133 H         1 <0>         0.1040
     41 H19         4.3696   -1.3258   -4.1822 H         1 <0>         0.0854
     42 H20        -5.2534    0.1780   -1.3470 H         1 <0>         0.1320
     43 H21        -6.8433   -1.5348   -0.5972 H         1 <0>         0.1440
     44 H22        -6.0938   -3.4063    0.8031 H         1 <0>         0.1391
     45 H23        -5.4161   -4.7537    1.8420 H         1 <0>         0.4004
     46 H24        -4.1903   -5.5628    2.6578 H         1 <0>         0.4080
     47 H25         2.4363   -0.1459   -3.2313 H         1 <0>         0.4253
@<TRIPOS>BOND
     1    1    2 1
     2    1   24 1
     3    1   25 1
     4    1   26 1
     5    2    3 1
     6    2   11 1
     7    2   27 1
     8    3    4 1
     9    3   28 1
    10    3   29 1
    11    4    5 1
    12    4   30 1
    13    4   31 1
    14    5    6 1
    15    5   32 1
    16    5   47 1
    17    6   10 1
    18    6    7 1
    19    6   33 1
    20    7    8 1
    21    7   34 1
    22    7   35 1
    23    8    9 1
    24    8   36 1
    25    8   37 1
    26    9   10 1
    27    9   38 1
    28    9   39 1
    29   10   40 1
    30   10   41 1
    31   11   20 2
    32   11   12 1
    33   12   13 1
    34   12   14 1
    35   14   19 ar
    36   14   15 ar
    37   15   16 ar
    38   15   42 1
    39   16   17 ar
    40   16   43 1
    41   17   18 ar
    42   17   44 1
    43   18   19 ar
    44   18   21 1
    45   19   20 1
    46   21   22 2
    47   21   23 am
    48   23   45 1
    49   23   46 1
@<TRIPOS>MOLECULE
CHEMBL481478__1
   47    49     0     0     0
SMALL
USER_CHARGES

@<TRIPOS>ATOM
      1 C1         -0.0187    1.5258    0.0104 C.3       1 <0>        -0.1651
      2 C2          0.0021   -0.0041    0.0020 C.3       1 <0>        -0.0026
      3 C3         -1.4333   -0.5336    0.0129 C.3       1 <0>        -0.1447
      4 C4         -2.1103   -0.1453    1.3289 C.3       1 <0>        -0.0125
      5 N1         -3.4884   -0.6537    1.3393 N.4       1 <0>        -0.5061
      6 C5         -4.1384   -0.2808    2.6028 C.3       1 <0>         0.0204
      7 C6         -3.4872   -1.0411    3.7765 C.3       1 <0>        -0.1441
      8 C7         -4.6701   -1.3643    4.7228 C.3       1 <0>        -0.1254
      9 C8         -5.8165   -1.6966    3.7356 C.3       1 <0>        -0.1315
     10 C9         -5.6194   -0.6976    2.5768 C.3       1 <0>        -0.1446
     11 C10         0.7074   -0.4901   -1.2379 C.2       1 <0>         0.2714
     12 N2          0.6583    0.1189   -2.4514 N.pl3     1 <0>        -0.5928
     13 H1          0.1721    0.9292   -2.6699 H         1 <0>         0.4233
     14 C11         1.4313   -0.6324   -3.3156 C.ar      1 <0>         0.0410
     15 C12         1.7609   -0.5210   -4.6587 C.ar      1 <0>        -0.0821
     16 C13         2.5806   -1.4606   -5.2526 C.ar      1 <0>        -0.1035
     17 C14         3.0829   -2.5211   -4.5210 C.ar      1 <0>        -0.0828
     18 C15         2.7682   -2.6565   -3.1713 C.ar      1 <0>        -0.0869
     19 C16         1.9313   -1.7022   -2.5552 C.ar      1 <0>         0.0982
     20 N3          1.4585   -1.5528   -1.3021 N.2       1 <0>        -0.4534
     21 C17         3.3050   -3.7873   -2.3928 C.2       1 <0>         0.5584
     22 O1          3.0269   -3.9006   -1.2144 O.2       1 <0>        -0.5162
     23 N4          4.1040   -4.6956   -2.9871 N.am      1 <0>        -0.8523
     24 H2          1.0039    1.9031    0.0027 H         1 <0>         0.0778
     25 H3         -0.5459    1.8868   -0.8726 H         1 <0>         0.0621
     26 H4         -0.5289    1.8773    0.9072 H         1 <0>         0.0753
     27 H5          0.5293   -0.3651    0.8851 H         1 <0>         0.1212
     28 H6         -1.9862   -0.1019   -0.8214 H         1 <0>         0.0893
     29 H7         -1.4207   -1.6194   -0.0826 H         1 <0>         0.0991
     30 H8         -1.5574   -0.5770    2.1631 H         1 <0>         0.1378
     31 H9         -2.1228    0.9405    1.4244 H         1 <0>         0.1361
     32 H10        -4.0002   -0.2541    0.5670 H         1 <0>         0.4270
     33 H11        -4.0558    0.7944    2.7617 H         1 <0>         0.1430
     34 H12        -3.0194   -1.9600    3.4232 H         1 <0>         0.0888
     35 H13        -2.7563   -0.4096    4.2815 H         1 <0>         0.0986
     36 H14        -4.4389   -2.2251    5.3502 H         1 <0>         0.0890
     37 H15        -4.9247   -0.4975    5.3327 H         1 <0>         0.0835
     38 H16        -5.7249   -2.7213    3.3756 H         1 <0>         0.0782
     39 H17        -6.7855   -1.5434    4.2107 H         1 <0>         0.0875
     40 H18        -6.2555    0.1752    2.7239 H         1 <0>         0.1032
     41 H19        -5.8559   -1.1765    1.6266 H         1 <0>         0.0851
     42 H20         1.3752    0.3025   -5.2414 H         1 <0>         0.1320
     43 H21         2.8314   -1.3664   -6.2988 H         1 <0>         0.1440
     44 H22         3.7224   -3.2483   -4.9990 H         1 <0>         0.1391
     45 H23         4.3258   -4.6052   -3.9270 H         1 <0>         0.4004
     46 H24         4.4572   -5.4397   -2.4748 H         1 <0>         0.4079
     47 H25        -3.4768   -1.6588    1.2509 H         1 <0>         0.4276
@<TRIPOS>BOND
     1    1    2 1
     2    1   24 1
     3    1   25 1
     4    1   26 1
     5    2    3 1
     6    2   11 1
     7    2   27 1
     8    3    4 1
     9    3   28 1
    10    3   29 1
    11    4    5 1
    12    4   30 1
    13    4   31 1
    14    5    6 1
    15    5   32 1
    16    5   47 1
    17    6   10 1
    18    6    7 1
    19    6   33 1
    20    7    8 1
    21    7   34 1
    22    7   35 1
    23    8    9 1
    24    8   36 1
    25    8   37 1
    26    9   10 1
    27    9   38 1
    28    9   39 1
    29   10   40 1
    30   10   41 1
    31   11   20 2
    32   11   12 1
    33   12   13 1
    34   12   14 1
    35   14   19 ar
    36   14   15 ar
    37   15   16 ar
    38   15   42 1
    39   16   17 ar
    40   16   43 1
    41   17   18 ar
    42   17   44 1
    43   18   19 ar
    44   18   21 1
    45   19   20 1
    46   21   22 2
    47   21   23 am
    48   23   45 1
    49   23   46 1
@<TRIPOS>MOLECULE
CHEMBL432211
   53    56     0     0     0
SMALL
USER_CHARGES

@<TRIPOS>ATOM
      1 C1         -0.0164    1.3575    0.0095 C.ar      1 <0>        -0.0988
      2 C2          1.1681    2.0917    0.0021 C.ar      1 <0>        -0.1185
      3 C3          2.3778    1.4684   -0.0127 C.ar      1 <0>        -0.0944
      4 C4          2.4367    0.0628   -0.0207 C.ar      1 <0>        -0.0707
      5 C5          3.6667   -0.6105   -0.0354 C.ar      1 <0>        -0.0237
      6 C6          3.6843   -1.9985   -0.0425 C.ar      1 <0>        -0.1728
      7 C7          2.4786   -2.7277   -0.0356 C.ar      1 <0>        -0.0840
      8 C8          1.2813   -2.0907   -0.0218 C.ar      1 <0>        -0.1106
      9 C9          1.2309   -0.6840   -0.0133 C.ar      1 <0>        -0.0263
     10 C10         0.0021   -0.0041    0.0020 C.ar      1 <0>        -0.1151
     11 C11         4.9698   -2.7126   -0.0580 C.2       1 <0>         0.3953
     12 O1          6.0098   -2.0890   -0.0644 O.2       1 <0>        -0.4488
     13 C12         4.9947   -4.2194   -0.0658 C.3       1 <0>         0.0736
     14 N1          6.3837   -4.6848   -0.0809 N.am      1 <0>        -0.7239
     15 C13         6.6518   -6.0056   -0.0900 C.2       1 <0>         0.5259
     16 O2          5.7432   -6.8089   -0.0857 O.2       1 <0>        -0.5339
     17 C14         8.0807   -6.4843   -0.1056 C.3       1 <0>        -0.1621
     18 C15         8.1059   -8.0141   -0.1135 C.3       1 <0>         0.1225
     19 N2          9.4950   -8.4795   -0.1286 N.am      1 <0>        -0.5347
     20 C16        10.1266   -8.6827   -1.3334 C.2       1 <0>         0.2015
     21 C17        11.4020   -9.1027   -1.3445 C.2       1 <0>        -0.2484
     22 C18        12.0597   -9.3396   -0.1066 C.2       1 <0>         0.5513
     23 O3         13.2131   -9.7303   -0.0932 O.2       1 <0>        -0.5095
     24 N3         11.4047   -9.1307    1.0504 N.am      1 <0>        -0.6594
     25 H1         11.8515   -9.2906    1.8963 H         1 <0>         0.4319
     26 C19        10.1312   -8.6950    1.0338 C.2       1 <0>         0.6966
     27 O4          9.5492   -8.4985    2.0831 O.2       1 <0>        -0.5362
     28 C20        12.1810   -9.3293   -2.6119 C.3       1 <0>        -0.0459
     29 C21        11.2393   -9.4569   -3.8079 C.3       1 <0>        -0.1240
     30 C22        10.2730   -8.2661   -3.7885 C.3       1 <0>        -0.1172
     31 C23         9.3388   -8.4261   -2.5906 C.3       1 <0>        -0.0947
     32 H2         -0.9635    1.8763    0.0259 H         1 <0>         0.1280
     33 H3          1.1254    3.1708    0.0079 H         1 <0>         0.1282
     34 H4          3.2879    2.0498   -0.0186 H         1 <0>         0.1318
     35 H5          4.5922   -0.0540   -0.0415 H         1 <0>         0.1413
     36 H6          2.5083   -3.8073   -0.0417 H         1 <0>         0.1346
     37 H7          0.3656   -2.6634   -0.0173 H         1 <0>         0.1357
     38 H8         -0.9245   -0.5589    0.0082 H         1 <0>         0.1321
     39 H9          4.4951   -4.5957    0.8269 H         1 <0>         0.1092
     40 H10         4.4788   -4.5867   -0.9529 H         1 <0>         0.1094
     41 H11         7.1105   -4.0424   -0.0844 H         1 <0>         0.4119
     42 H12         8.5802   -6.1081   -0.9983 H         1 <0>         0.1032
     43 H13         8.5966   -6.1170    0.7816 H         1 <0>         0.1076
     44 H14         7.6064   -8.3904    0.7792 H         1 <0>         0.1146
     45 H15         7.5900   -8.3814   -1.0007 H         1 <0>         0.1088
     46 H16        12.8556   -8.4886   -2.7741 H         1 <0>         0.0780
     47 H17        12.7653  -10.2444   -2.5157 H         1 <0>         0.0835
     48 H18        11.8162   -9.4469   -4.7327 H         1 <0>         0.0781
     49 H19        10.6768  -10.3877   -3.7351 H         1 <0>         0.0697
     50 H20        10.8360   -7.3375   -3.6940 H         1 <0>         0.0737
     51 H21         9.6901   -8.2508   -4.7095 H         1 <0>         0.0815
     52 H22         8.6652   -9.2641   -2.7698 H         1 <0>         0.1020
     53 H23         8.7530   -7.5152   -2.4677 H         1 <0>         0.0921
@<TRIPOS>BOND
     1    1   10 ar
     2    1    2 ar
     3    1   32 1
     4    2    3 ar
     5    2   33 1
     6    3    4 ar
     7    3   34 1
     8    4    9 ar
     9    4    5 ar
    10    5    6 ar
    11    5   35 1
    12    6    7 ar
    13    6   11 1
    14    7    8 ar
    15    7   36 1
    16    8    9 ar
    17    8   37 1
    18    9   10 ar
    19   10   38 1
    20   11   12 2
    21   11   13 1
    22   13   14 1
    23   13   39 1
    24   13   40 1
    25   14   15 am
    26   14   41 1
    27   15   16 2
    28   15   17 1
    29   17   18 1
    30   17   42 1
    31   17   43 1
    32   18   19 1
    33   18   44 1
    34   18   45 1
    35   19   26 am
    36   19   20 1
    37   20   31 1
    38   20   21 2
    39   21   22 1
    40   21   28 1
    41   22   23 2
    42   22   24 am
    43   24   25 1
    44   24   26 am
    45   26   27 2
    46   28   29 1
    47   28   46 1
    48   28   47 1
    49   29   30 1
    50   29   48 1
    51   29   49 1
    52   30   31 1
    53   30   50 1
    54   30   51 1
    55   31   52 1
    56   31   53 1
@<TRIPOS>MOLECULE
CHEMBL289834
   44    47     0     0     0
SMALL
USER_CHARGES

@<TRIPOS>ATOM
      1 C1         -0.0167    1.3781    0.0096 C.ar      1 <0>        -0.1198
      2 C2          1.1709    2.0855    0.0021 C.ar      1 <0>        -0.1179
      3 C3          2.3773    1.4107   -0.0130 C.ar      1 <0>        -0.1136
      4 C4          2.3960    0.0285   -0.0201 C.ar      1 <0>        -0.0860
      5 C5          1.2084   -0.6789   -0.0117 C.ar      1 <0>        -0.1136
      6 C6          0.0021   -0.0041    0.0020 C.ar      1 <0>        -0.1179
      7 C7          3.7112   -0.7071   -0.0376 C.3       1 <0>        -0.0915
      8 C8          4.1714   -0.9633    1.3989 C.3       1 <0>         0.1238
      9 N1          5.4498   -1.6784    1.3820 N.am      1 <0>        -0.7247
     10 C9          6.0502   -2.0132    2.5413 C.2       1 <0>         0.5575
     11 O1          5.5308   -1.7218    3.6010 O.2       1 <0>        -0.5275
     12 C10         7.3400   -2.7347    2.5241 C.ar      1 <0>        -0.0891
     13 C11         7.9384   -3.0638    1.3033 C.ar      1 <0>        -0.1114
     14 C12         9.1296   -3.7300    1.2798 C.ar      1 <0>        -0.0703
     15 C13         9.7569   -4.0865    2.4743 C.ar      1 <0>        -0.0726
     16 C14        11.0444   -4.8065    2.4601 C.ar      1 <0>        -0.0145
     17 C15        11.6735   -5.1527    1.2688 C.ar      1 <0>        -0.0865
     18 C16        12.8772   -5.8256    1.3027 C.ar      1 <0>        -0.1150
     19 C17        13.4649   -6.1601    2.5160 C.ar      1 <0>         0.0963
     20 C18        12.8543   -5.8248    3.7090 C.ar      1 <0>        -0.0841
     21 C19        11.6386   -5.1443    3.6933 C.ar      1 <0>        -0.1096
     22 C20        10.9541   -4.7668    4.9396 C.2       1 <0>         0.5603
     23 N2          9.7807   -4.1107    4.9001 N.am      1 <0>        -0.6380
     24 C21         9.1680   -3.7623    3.7068 C.ar      1 <0>         0.1738
     25 C22         7.9583   -3.0795    3.7235 C.ar      1 <0>        -0.0945
     26 O2         11.4524   -5.0503    6.0129 O.2       1 <0>        -0.5104
     27 F1         14.6439   -6.8197    2.5295 F         1 <0>        -0.1295
     28 H1         -0.9591    1.9053    0.0259 H         1 <0>         0.1226
     29 H2          1.1563    3.1654    0.0076 H         1 <0>         0.1233
     30 H3          3.3051    1.9634   -0.0196 H         1 <0>         0.1224
     31 H4          1.2231   -1.7588   -0.0176 H         1 <0>         0.1224
     32 H5         -0.9258   -0.5567    0.0082 H         1 <0>         0.1233
     33 H6          3.5884   -1.6586   -0.5549 H         1 <0>         0.0811
     34 H7          4.4573   -0.1052   -0.5563 H         1 <0>         0.0811
     35 H8          4.2941   -0.0118    1.9163 H         1 <0>         0.0735
     36 H9          3.4252   -1.5652    1.9176 H         1 <0>         0.0735
     37 H10         5.8643   -1.9110    0.5363 H         1 <0>         0.4017
     38 H11         7.4563   -2.7902    0.3764 H         1 <0>         0.1351
     39 H12         9.5874   -3.9822    0.3347 H         1 <0>         0.1432
     40 H13        11.2217   -4.8963    0.3220 H         1 <0>         0.1484
     41 H14        13.3665   -6.0948    0.3783 H         1 <0>         0.1488
     42 H15        13.3167   -6.0888    4.6486 H         1 <0>         0.1552
     43 H16         7.4962   -2.8202    4.6646 H         1 <0>         0.1495
     44 H17         9.3487   -3.8730    5.7353 H         1 <0>         0.4209
@<TRIPOS>BOND
     1    1    6 ar
     2    1    2 ar
     3    1   28 1
     4    2    3 ar
     5    2   29 1
     6    3    4 ar
     7    3   30 1
     8    4    5 ar
     9    4    7 1
    10    5    6 ar
    11    5   31 1
    12    6   32 1
    13    7    8 1
    14    7   33 1
    15    7   34 1
    16    8    9 1
    17    8   35 1
    18    8   36 1
    19    9   10 am
    20    9   37 1
    21   10   11 2
    22   10   12 1
    23   12   25 ar
    24   12   13 ar
    25   13   14 ar
    26   13   38 1
    27   14   15 ar
    28   14   39 1
    29   15   24 ar
    30   15   16 1
    31   16   21 ar
    32   16   17 ar
    33   17   18 ar
    34   17   40 1
    35   18   19 ar
    36   18   41 1
    37   19   20 ar
    38   19   27 1
    39   20   21 ar
    40   20   42 1
    41   21   22 1
    42   22   23 am
    43   22   26 2
    44   23   24 1
    45   23   44 1
    46   24   25 ar
    47   25   43 1
@<TRIPOS>MOLECULE
CHEMBL1095606
   38    41     0     0     0
SMALL
USER_CHARGES

@<TRIPOS>ATOM
      1 C1         -0.0168    1.3848    0.0097 C.ar      1 <0>        -0.1750
      2 C2          1.1177    2.1322    0.0028 C.ar      1 <0>        -0.0013
      3 C3          2.3826    1.5133   -0.0126 C.ar      1 <0>        -0.2122
      4 C4          3.6910    1.9652   -0.0227 C.2       1 <0>         0.0873
      5 N1          4.4959    0.8918   -0.0362 N.pl3     1 <0>        -0.2699
      6 N2          3.7292   -0.2794   -0.0351 N.2       1 <0>        -0.2669
      7 C5          2.4541    0.0429   -0.0212 C.ar      1 <0>         0.1396
      8 C6          1.1954   -0.7094   -0.0132 C.ar      1 <0>        -0.1268
      9 C7          0.0021   -0.0041    0.0020 C.ar      1 <0>        -0.0219
     10 C8          1.1989   -2.1810   -0.0217 C.2       1 <0>         0.5622
     11 O1          2.2538   -2.7866   -0.0355 O.2       1 <0>        -0.5246
     12 N3          0.0334   -2.8577   -0.0142 N.am      1 <0>        -0.8546
     13 C9          5.8958    0.9364   -0.0493 C.ar      1 <0>         0.1330
     14 C10         6.5546    2.1592   -0.0433 C.ar      1 <0>        -0.1286
     15 C11         7.9330    2.1939   -0.0585 C.ar      1 <0>        -0.0965
     16 C12         8.6658    1.0159   -0.0788 C.ar      1 <0>        -0.0655
     17 C13         8.0152   -0.2000   -0.0811 C.ar      1 <0>        -0.0581
     18 C14         6.6298   -0.2398   -0.0627 C.ar      1 <0>        -0.0976
     19 C15         8.7686   -1.5044   -0.0904 C.3       1 <0>         0.0935
     20 N4         10.1570   -1.2929   -0.5116 N.3       1 <0>        -0.6849
     21 C16        10.7806   -0.2359    0.3003 C.3       1 <0>         0.0507
     22 C17        10.1703    1.1074   -0.1005 C.3       1 <0>        -0.0789
     23 H1         -0.9709    1.8905    0.0261 H         1 <0>         0.1321
     24 H2          1.0489    3.2100    0.0089 H         1 <0>         0.1310
     25 H3          4.0075    2.9978   -0.0204 H         1 <0>         0.1915
     26 H4         -0.9323   -0.5457    0.0084 H         1 <0>         0.1339
     27 H5         -0.8078   -2.3748   -0.0032 H         1 <0>         0.3988
     28 H6          0.0357   -3.8277   -0.0198 H         1 <0>         0.4058
     29 H7          5.9894    3.0794   -0.0271 H         1 <0>         0.1338
     30 H8          8.4457    3.1444   -0.0551 H         1 <0>         0.1369
     31 H9          6.1194   -1.1916   -0.0633 H         1 <0>         0.1438
     32 H10         8.7580   -1.9331    0.9117 H         1 <0>         0.0512
     33 H11         8.2843   -2.1945   -0.7813 H         1 <0>         0.0940
     34 H12        10.6860   -2.1504   -0.4570 H         1 <0>         0.3512
     35 H13        10.5892   -0.4245    1.3566 H         1 <0>         0.0387
     36 H14        11.8550   -0.2193    0.1171 H         1 <0>         0.0837
     37 H15        10.5024    1.3705   -1.1048 H         1 <0>         0.0885
     38 H16        10.4963    1.8764    0.5999 H         1 <0>         0.0820
@<TRIPOS>BOND
     1    1    9 ar
     2    1    2 ar
     3    1   23 1
     4    2    3 ar
     5    2   24 1
     6    3    7 ar
     7    3    4 2
     8    4    5 1
     9    4   25 1
    10    5    6 1
    11    5   13 1
    12    6    7 2
    13    7    8 ar
    14    8    9 ar
    15    8   10 1
    16    9   26 1
    17   10   11 2
    18   10   12 am
    19   12   27 1
    20   12   28 1
    21   13   18 ar
    22   13   14 ar
    23   14   15 ar
    24   14   29 1
    25   15   16 ar
    26   15   30 1
    27   16   22 1
    28   16   17 ar
    29   17   18 ar
    30   17   19 1
    31   18   31 1
    32   19   20 1
    33   19   32 1
    34   19   33 1
    35   20   21 1
    36   20   34 1
    37   21   22 1
    38   21   35 1
    39   21   36 1
    40   22   37 1
    41   22   38 1
@<TRIPOS>MOLECULE
CHEMBL1095606__1
   39    42     0     0     0
SMALL
USER_CHARGES

@<TRIPOS>ATOM
      1 C1         -0.0168    1.3848    0.0097 C.ar      1 <0>        -0.1631
      2 C2          1.1177    2.1322    0.0028 C.ar      1 <0>        -0.0073
      3 C3          2.3826    1.5133   -0.0126 C.ar      1 <0>        -0.1995
      4 C4          3.6910    1.9652   -0.0227 C.2       1 <0>         0.0877
      5 N1          4.4959    0.8918   -0.0362 N.pl3     1 <0>        -0.2930
      6 N2          3.7292   -0.2794   -0.0351 N.2       1 <0>        -0.2689
      7 C5          2.4541    0.0429   -0.0212 C.ar      1 <0>         0.1506
      8 C6          1.1954   -0.7094   -0.0132 C.ar      1 <0>        -0.1299
      9 C7          0.0021   -0.0041    0.0020 C.ar      1 <0>        -0.0134
     10 C8          1.1989   -2.1810   -0.0217 C.2       1 <0>         0.5652
     11 O1          2.2538   -2.7866   -0.0355 O.2       1 <0>        -0.5314
     12 N3          0.0334   -2.8577   -0.0142 N.am      1 <0>        -0.8511
     13 C9          5.8958    0.9364   -0.0493 C.ar      1 <0>         0.1696
     14 C10         6.5543    2.1594   -0.0432 C.ar      1 <0>        -0.1130
     15 C11         7.9330    2.1945   -0.0574 C.ar      1 <0>        -0.0754
     16 C12         8.6649    1.0166   -0.0770 C.ar      1 <0>        -0.0991
     17 C13         8.0147   -0.2000   -0.0802 C.ar      1 <0>        -0.1105
     18 C14         6.6295   -0.2400   -0.0627 C.ar      1 <0>        -0.0873
     19 C15         8.7712   -1.5022   -0.0921 C.3       1 <0>         0.0459
     20 N4         10.1514   -1.2931   -0.5387 N.4       1 <0>        -0.5041
     21 C16        10.7706   -0.2490    0.2918 C.3       1 <0>        -0.0049
     22 C17        10.1700    1.1027   -0.0962 C.3       1 <0>        -0.1056
     23 H1         -0.9709    1.8905    0.0261 H         1 <0>         0.1381
     24 H2          1.0489    3.2100    0.0089 H         1 <0>         0.1359
     25 H3          4.0075    2.9978   -0.0204 H         1 <0>         0.1944
     26 H4         -0.9323   -0.5457    0.0084 H         1 <0>         0.1392
     27 H5         -0.8078   -2.3748   -0.0032 H         1 <0>         0.4010
     28 H6          0.0357   -3.8277   -0.0198 H         1 <0>         0.4084
     29 H7          5.9889    3.0794   -0.0278 H         1 <0>         0.1461
     30 H8          8.4458    3.1450   -0.0535 H         1 <0>         0.1483
     31 H9          6.1192   -1.1919   -0.0639 H         1 <0>         0.1548
     32 H10         8.7788   -1.9226    0.9136 H         1 <0>         0.1450
     33 H11         8.2763   -2.1991   -0.7685 H         1 <0>         0.1462
     34 H12        10.6710   -2.1528   -0.4433 H         1 <0>         0.4383
     35 H13        10.5687   -0.4505    1.3438 H         1 <0>         0.1354
     36 H14        11.8467   -0.2344    0.1193 H         1 <0>         0.1422
     37 H15        10.5047    1.3738   -1.0975 H         1 <0>         0.1069
     38 H16        10.4986    1.8624    0.6129 H         1 <0>         0.1258
     39 H17        10.1532   -1.0015   -1.5047 H         1 <0>         0.4324
@<TRIPOS>BOND
     1    1    9 ar
     2    1    2 ar
     3    1   23 1
     4    2    3 ar
     5    2   24 1
     6    3    7 ar
     7    3    4 2
     8    4    5 1
     9    4   25 1
    10    5    6 1
    11    5   13 1
    12    6    7 2
    13    7    8 ar
    14    8    9 ar
    15    8   10 1
    16    9   26 1
    17   10   11 2
    18   10   12 am
    19   12   27 1
    20   12   28 1
    21   13   18 ar
    22   13   14 ar
    23   14   15 ar
    24   14   29 1
    25   15   16 ar
    26   15   30 1
    27   16   22 1
    28   16   17 ar
    29   17   18 ar
    30   17   19 1
    31   18   31 1
    32   19   20 1
    33   19   32 1
    34   19   33 1
    35   20   21 1
    36   20   34 1
    37   20   39 1
    38   21   22 1
    39   21   35 1
    40   21   36 1
    41   22   37 1
    42   22   38 1
@<TRIPOS>MOLECULE
CHEMBL198355
   51    55     0     0     0
SMALL
USER_CHARGES

@<TRIPOS>ATOM
      1 C1         -0.0167    1.3792    0.0096 C.ar      1 <0>        -0.1028
      2 C2          1.1683    2.0931    0.0021 C.ar      1 <0>        -0.1154
      3 C3          2.3774    1.4286   -0.0134 C.ar      1 <0>        -0.1020
      4 C4          2.4032    0.0335   -0.0212 C.ar      1 <0>        -0.0833
      5 C5          1.2045   -0.6806   -0.0131 C.ar      1 <0>        -0.1009
      6 C6          0.0021   -0.0041    0.0020 C.ar      1 <0>        -0.1149
      7 C7          3.6950   -0.6848   -0.0384 C.2       1 <0>        -0.0455
      8 C8          4.4943   -0.5772    1.0009 C.2       1 <0>        -0.1874
      9 C9          5.8233   -1.2710    1.0843 C.3       1 <0>         0.0330
     10 N1          6.2689   -1.6856   -0.2511 N.4       1 <0>        -0.3851
     11 C10         5.1971   -2.4623   -0.8938 C.3       1 <0>        -0.0041
     12 C11         4.0456   -1.5174   -1.2408 C.3       1 <0>        -0.1132
     13 C12         7.4741   -2.5169   -0.1311 C.3       1 <0>         0.0443
     14 C13         8.6029   -1.6877    0.4252 C.ar      1 <0>        -0.1192
     15 C14         9.4382   -0.9965   -0.4385 C.ar      1 <0>        -0.1216
     16 C15        10.4739   -0.2354    0.0592 C.ar      1 <0>        -0.0602
     17 C16        10.6803   -0.1613    1.4358 C.ar      1 <0>        -0.0586
     18 C17        11.7821    0.6475    1.9906 C.ar      1 <0>        -0.0220
     19 C18        12.6499    1.3610    1.1710 C.ar      1 <0>        -0.1124
     20 C19        13.6658    2.1041    1.7359 C.ar      1 <0>        -0.0783
     21 C20        13.8287    2.1447    3.1128 C.ar      1 <0>        -0.1146
     22 C21        12.9788    1.4442    3.9418 C.ar      1 <0>        -0.0472
     23 C22        11.9457    0.6878    3.3903 C.ar      1 <0>        -0.1359
     24 C23        11.0156   -0.0744    4.2365 C.2       1 <0>         0.5582
     25 N2         10.0262   -0.7971    3.6816 N.am      1 <0>        -0.6451
     26 C24         9.8357   -0.8599    2.3112 C.ar      1 <0>         0.1870
     27 C25         8.7924   -1.6186    1.7888 C.ar      1 <0>        -0.1397
     28 O1         11.1420   -0.0515    5.4466 O.2       1 <0>        -0.5005
     29 H1         -0.9604    1.9041    0.0260 H         1 <0>         0.1297
     30 H2          1.1469    3.1729    0.0082 H         1 <0>         0.1299
     31 H3          3.3018    1.9870   -0.0200 H         1 <0>         0.1235
     32 H4          1.2178   -1.7605   -0.0194 H         1 <0>         0.1244
     33 H5         -0.9265   -0.5556    0.0079 H         1 <0>         0.1303
     34 H6          4.1807    0.0380    1.8312 H         1 <0>         0.1500
     35 H7          6.5585   -0.5912    1.5147 H         1 <0>         0.1388
     36 H8          5.7318   -2.1497    1.7228 H         1 <0>         0.1379
     37 H9          5.5771   -2.9272   -1.8035 H         1 <0>         0.1394
     38 H10         4.8408   -3.2312   -0.2083 H         1 <0>         0.1337
     39 H11         3.1757   -2.0990   -1.5459 H         1 <0>         0.1257
     40 H12         4.3502   -0.8642   -2.0585 H         1 <0>         0.1075
     41 H13         7.2735   -3.3533    0.5384 H         1 <0>         0.1390
     42 H14         7.7527   -2.8970   -1.1140 H         1 <0>         0.1438
     43 H15         9.2772   -1.0548   -1.5048 H         1 <0>         0.1395
     44 H16        11.1239    0.3018   -0.6156 H         1 <0>         0.1468
     45 H17        12.5293    1.3334    0.0981 H         1 <0>         0.1373
     46 H18        14.3404    2.6587    1.1004 H         1 <0>         0.1393
     47 H19        14.6294    2.7306    3.5395 H         1 <0>         0.1409
     48 H20        13.1128    1.4809    5.0128 H         1 <0>         0.1454
     49 H21         8.1327   -2.1574    2.4528 H         1 <0>         0.1404
     50 H22         9.4257   -1.2915    4.2610 H         1 <0>         0.4181
     51 H23         6.4742   -0.8691   -0.8071 H         1 <0>         0.4263
@<TRIPOS>BOND
     1    1    6 ar
     2    1    2 ar
     3    1   29 1
     4    2    3 ar
     5    2   30 1
     6    3    4 ar
     7    3   31 1
     8    4    5 ar
     9    4    7 1
    10    5    6 ar
    11    5   32 1
    12    6   33 1
    13    7   12 1
    14    7    8 2
    15    8    9 1
    16    8   34 1
    17    9   10 1
    18    9   35 1
    19    9   36 1
    20   10   11 1
    21   10   13 1
    22   10   51 1
    23   11   12 1
    24   11   37 1
    25   11   38 1
    26   12   39 1
    27   12   40 1
    28   13   14 1
    29   13   41 1
    30   13   42 1
    31   14   27 ar
    32   14   15 ar
    33   15   16 ar
    34   15   43 1
    35   16   17 ar
    36   16   44 1
    37   17   26 ar
    38   17   18 1
    39   18   23 ar
    40   18   19 ar
    41   19   20 ar
    42   19   45 1
    43   20   21 ar
    44   20   46 1
    45   21   22 ar
    46   21   47 1
    47   22   23 ar
    48   22   48 1
    49   23   24 1
    50   24   25 am
    51   24   28 2
    52   25   26 1
    53   25   50 1
    54   26   27 ar
    55   27   49 1
@<TRIPOS>MOLECULE
CHEMBL198355__1
   50    54     0     0     0
SMALL
USER_CHARGES

@<TRIPOS>ATOM
      1 C1         -0.0167    1.3792    0.0096 C.ar      1 <0>        -0.1209
      2 C2          1.1683    2.0931    0.0021 C.ar      1 <0>        -0.1187
      3 C3          2.3774    1.4286   -0.0134 C.ar      1 <0>        -0.1078
      4 C4          2.4032    0.0335   -0.0212 C.ar      1 <0>        -0.0528
      5 C5          1.2045   -0.6806   -0.0131 C.ar      1 <0>        -0.1094
      6 C6          0.0021   -0.0041    0.0020 C.ar      1 <0>        -0.1191
      7 C7          3.6950   -0.6848   -0.0384 C.2       1 <0>        -0.0754
      8 C8          4.4914   -0.5751    1.0019 C.2       1 <0>        -0.1453
      9 C9          5.8211   -1.2671    1.0922 C.3       1 <0>         0.0826
     10 N1          6.2564   -1.7073   -0.2392 N.3       1 <0>        -0.5257
     11 C10         5.1852   -2.4719   -0.8990 C.3       1 <0>         0.0523
     12 C11         4.0418   -1.5160   -1.2421 C.3       1 <0>        -0.0732
     13 C12         7.4919   -2.4975   -0.1546 C.3       1 <0>         0.0887
     14 C13         8.6198   -1.6171    0.3185 C.ar      1 <0>        -0.0310
     15 C14         9.3892   -0.9292   -0.6069 C.ar      1 <0>        -0.1206
     16 C15        10.4234   -0.1216   -0.1856 C.ar      1 <0>        -0.0643
     17 C16        10.6951    0.0030    1.1759 C.ar      1 <0>        -0.0983
     18 C17        11.7967    0.8621    1.6495 C.ar      1 <0>         0.0038
     19 C18        12.5999    1.5747    0.7658 C.ar      1 <0>        -0.1221
     20 C19        13.6184    2.3659    1.2558 C.ar      1 <0>        -0.0802
     21 C20        13.8476    2.4558    2.6208 C.ar      1 <0>        -0.1314
     22 C21        13.0623    1.7570    3.5127 C.ar      1 <0>        -0.0476
     23 C22        12.0278    0.9524    3.0374 C.ar      1 <0>        -0.1447
     24 C23        11.1652    0.1902    3.9522 C.2       1 <0>         0.5587
     25 N2         10.1731   -0.5795    3.4702 N.am      1 <0>        -0.6420
     26 C24         9.9172   -0.6922    2.1137 C.ar      1 <0>         0.1801
     27 C25         8.8741   -1.4985    1.6681 C.ar      1 <0>        -0.1554
     28 O1         11.3504    0.2558    5.1531 O.2       1 <0>        -0.5216
     29 H1         -0.9604    1.9041    0.0260 H         1 <0>         0.1218
     30 H2          1.1469    3.1729    0.0082 H         1 <0>         0.1231
     31 H3          3.3018    1.9870   -0.0200 H         1 <0>         0.1225
     32 H4          1.2178   -1.7605   -0.0194 H         1 <0>         0.1213
     33 H5         -0.9265   -0.5556    0.0079 H         1 <0>         0.1229
     34 H6          4.1747    0.0418    1.8299 H         1 <0>         0.1130
     35 H7          6.5591   -0.5787    1.5040 H         1 <0>         0.0900
     36 H8          5.7334   -2.1333    1.7480 H         1 <0>         0.0471
     37 H9          5.5693   -2.9274   -1.8117 H         1 <0>         0.0828
     38 H10         4.8203   -3.2471   -0.2251 H         1 <0>         0.0402
     39 H11         3.1677   -2.0893   -1.5509 H         1 <0>         0.0775
     40 H12         4.3523   -0.8622   -2.0570 H         1 <0>         0.0838
     41 H13         7.3512   -3.3175    0.5495 H         1 <0>         0.0484
     42 H14         7.7335   -2.9005   -1.1381 H         1 <0>         0.0920
     43 H15         9.1776   -1.0267   -1.6615 H         1 <0>         0.1326
     44 H16        11.0220    0.4129   -0.9084 H         1 <0>         0.1353
     45 H17        12.4275    1.5089   -0.2983 H         1 <0>         0.1354
     46 H18        14.2428    2.9199    0.5705 H         1 <0>         0.1332
     47 H19        14.6494    3.0790    2.9885 H         1 <0>         0.1339
     48 H20        13.2477    1.8323    4.5740 H         1 <0>         0.1400
     49 H21         8.2654   -2.0353    2.3806 H         1 <0>         0.1295
     50 H22         9.6179   -1.0729    4.0941 H         1 <0>         0.4149
@<TRIPOS>BOND
     1    1    6 ar
     2    1    2 ar
     3    1   29 1
     4    2    3 ar
     5    2   30 1
     6    3    4 ar
     7    3   31 1
     8    4    5 ar
     9    4    7 1
    10    5    6 ar
    11    5   32 1
    12    6   33 1
    13    7   12 1
    14    7    8 2
    15    8    9 1
    16    8   34 1
    17    9   10 1
    18    9   35 1
    19    9   36 1
    20   10   11 1
    21   10   13 1
    22   11   12 1
    23   11   37 1
    24   11   38 1
    25   12   39 1
    26   12   40 1
    27   13   14 1
    28   13   41 1
    29   13   42 1
    30   14   27 ar
    31   14   15 ar
    32   15   16 ar
    33   15   43 1
    34   16   17 ar
    35   16   44 1
    36   17   26 ar
    37   17   18 1
    38   18   23 ar
    39   18   19 ar
    40   19   20 ar
    41   19   45 1
    42   20   21 ar
    43   20   46 1
    44   21   22 ar
    45   21   47 1
    46   22   23 ar
    47   22   48 1
    48   23   24 1
    49   24   25 am
    50   24   28 2
    51   25   26 1
    52   25   50 1
    53   26   27 ar
    54   27   49 1
@<TRIPOS>MOLECULE
CHEMBL357149
   38    42     0     0     0
SMALL
USER_CHARGES

@<TRIPOS>ATOM
      1 C1         -0.0167    1.3771    0.0096 C.ar      1 <0>        -0.1124
      2 C2          1.1574    2.1046    0.0023 C.ar      1 <0>        -0.0733
      3 C3          2.3930    1.4545   -0.0345 C.ar      1 <0>        -0.0939
      4 C4          2.4119    0.0471   -0.1417 C.ar      1 <0>        -0.0630
      5 C5          1.2129   -0.6827   -0.0633 C.ar      1 <0>         0.0873
      6 C6          0.0021   -0.0041    0.0020 C.ar      1 <0>        -0.0958
      7 N1          1.5458   -2.0214   -0.0900 N.pl3     1 <0>        -0.5829
      8 H1          0.9278   -2.7600    0.0258 H         1 <0>         0.4205
      9 C7          2.8985   -2.1351   -0.3089 C.2       1 <0>         0.1499
     10 C8          3.4476   -0.8974   -0.3751 C.2       1 <0>        -0.1634
     11 C9          4.8602   -0.5282   -0.6598 C.3       1 <0>        -0.0687
     12 C10         4.9762    0.7979   -1.3700 C.3       1 <0>         0.1127
     13 N2          4.8024    1.9359   -0.5017 N.am      1 <0>        -0.7156
     14 C11         3.6224    2.2384    0.0723 C.2       1 <0>         0.5645
     15 O1          3.5752    3.2547    0.7388 O.2       1 <0>        -0.5462
     16 C12         3.6381   -3.4074   -0.4503 C.ar      1 <0>        -0.0690
     17 C13         4.8515   -3.5905    0.2257 C.ar      1 <0>        -0.0696
     18 C14         5.5457   -4.7586    0.1055 C.ar      1 <0>        -0.1250
     19 C15         5.0544   -5.7873   -0.6946 C.ar      1 <0>         0.1050
     20 C16         3.8363   -5.6159   -1.3792 C.ar      1 <0>        -0.1106
     21 C17         3.1259   -4.4233   -1.2496 C.ar      1 <0>        -0.0482
     22 C18         3.6079   -6.8606   -2.1180 C.2       1 <0>        -0.2020
     23 C19         4.6452   -7.6698   -1.8522 C.2       1 <0>         0.0534
     24 N3          5.5189   -7.0458   -1.0040 N.pl3     1 <0>        -0.5943
     25 H2          6.3435   -7.4326   -0.6704 H         1 <0>         0.4180
     26 H3         -0.9637    1.8959    0.0260 H         1 <0>         0.1346
     27 H4          1.1196    3.1837    0.0249 H         1 <0>         0.1339
     28 H5         -0.9247   -0.5567    0.0473 H         1 <0>         0.1265
     29 H6          5.4073   -0.4736    0.2814 H         1 <0>         0.0746
     30 H7          5.3088   -1.3024   -1.2823 H         1 <0>         0.0872
     31 H8          5.9609    0.8601   -1.8334 H         1 <0>         0.0891
     32 H9          4.2214    0.8400   -2.1552 H         1 <0>         0.0688
     33 H10         5.5664    2.5065   -0.3237 H         1 <0>         0.4048
     34 H11         5.2414   -2.7987    0.8481 H         1 <0>         0.1317
     35 H12         6.4798   -4.8861    0.6324 H         1 <0>         0.1258
     36 H13         2.1887   -4.2880   -1.7690 H         1 <0>         0.1237
     37 H14         2.7651   -7.0843   -2.7553 H         1 <0>         0.1487
     38 H15         4.7717   -8.6661   -2.2494 H         1 <0>         0.1732
@<TRIPOS>BOND
     1    1    6 ar
     2    1    2 ar
     3    1   26 1
     4    2    3 ar
     5    2   27 1
     6    3   14 1
     7    3    4 ar
     8    4   10 1
     9    4    5 ar
    10    5    6 ar
    11    5    7 1
    12    6   28 1
    13    7    8 1
    14    7    9 1
    15    9   10 2
    16    9   16 1
    17   10   11 1
    18   11   12 1
    19   11   29 1
    20   11   30 1
    21   12   13 1
    22   12   31 1
    23   12   32 1
    24   13   14 am
    25   13   33 1
    26   14   15 2
    27   16   21 ar
    28   16   17 ar
    29   17   18 ar
    30   17   34 1
    31   18   19 ar
    32   18   35 1
    33   19   24 1
    34   19   20 ar
    35   20   21 ar
    36   20   22 1
    37   21   36 1
    38   22   23 2
    39   22   37 1
    40   23   24 1
    41   23   38 1
    42   24   25 1
@<TRIPOS>MOLECULE
CHEMBL320031
   23    25     0     0     0
SMALL
USER_CHARGES

@<TRIPOS>ATOM
      1 C1         -0.0166    1.3758    0.0096 C.ar      1 <0>        -0.0877
      2 C2          1.1676    2.0974    0.0022 C.ar      1 <0>        -0.1200
      3 C3          2.3848    1.4497   -0.0129 C.ar      1 <0>        -0.0529
      4 C4          2.4245    0.0564   -0.0208 C.ar      1 <0>        -0.1345
      5 C5          1.2198   -0.6752   -0.0131 C.ar      1 <0>        -0.0026
      6 C6          0.0021   -0.0041    0.0020 C.ar      1 <0>        -0.0912
      7 C7          1.2916   -2.1499   -0.0221 C.ar      1 <0>         0.1158
      8 C8          2.5507   -2.7677   -0.0380 C.ar      1 <0>         0.1289
      9 C9          2.6151   -4.1605   -0.0465 C.ar      1 <0>        -0.1147
     10 C10         1.4304   -4.8749   -0.0388 C.ar      1 <0>        -0.1277
     11 C11         0.2229   -4.1953   -0.0230 C.ar      1 <0>         0.0829
     12 N1          0.1831   -2.8802   -0.0149 N.ar      1 <0>        -0.4393
     13 N2          3.7143   -2.0192   -0.0448 N.am      1 <0>        -0.6380
     14 H1          4.5680   -2.4798   -0.0556 H         1 <0>         0.4169
     15 C12         3.7014   -0.6740   -0.0374 C.2       1 <0>         0.5588
     16 O1          4.7510   -0.0583   -0.0446 O.2       1 <0>        -0.5144
     17 H2         -0.9617    1.8983    0.0260 H         1 <0>         0.1356
     18 H3          1.1362    3.1769    0.0079 H         1 <0>         0.1362
     19 H4          3.3026    2.0189   -0.0190 H         1 <0>         0.1428
     20 H5         -0.9240   -0.5597    0.0082 H         1 <0>         0.1446
     21 H6          3.5674   -4.6697   -0.0591 H         1 <0>         0.1465
     22 H7          1.4466   -5.9548   -0.0454 H         1 <0>         0.1472
     23 H8         -0.7011   -4.7545   -0.0170 H         1 <0>         0.1670
@<TRIPOS>BOND
     1    1    6 ar
     2    1    2 ar
     3    1   17 1
     4    2    3 ar
     5    2   18 1
     6    3    4 ar
     7    3   19 1
     8    4   15 1
     9    4    5 ar
    10    5    6 ar
    11    5    7 1
    12    6   20 1
    13    7   12 ar
    14    7    8 ar
    15    8    9 ar
    16    8   13 1
    17    9   10 ar
    18    9   21 1
    19   10   11 ar
    20   10   22 1
    21   11   12 ar
    22   11   23 1
    23   13   14 1
    24   13   15 am
    25   15   16 2
@<TRIPOS>MOLECULE
CHEMBL1098297
   42    45     0     0     0
SMALL
USER_CHARGES

@<TRIPOS>ATOM
      1 C1         -0.0168    1.3848    0.0097 C.ar      1 <0>        -0.1617
      2 C2          1.1177    2.1322    0.0028 C.ar      1 <0>        -0.0089
      3 C3          2.3826    1.5133   -0.0126 C.ar      1 <0>        -0.1980
      4 C4          3.6910    1.9652   -0.0227 C.2       1 <0>         0.0859
      5 N1          4.4959    0.8918   -0.0362 N.pl3     1 <0>        -0.2955
      6 N2          3.7292   -0.2794   -0.0351 N.2       1 <0>        -0.2649
      7 C5          2.4541    0.0429   -0.0212 C.ar      1 <0>         0.1502
      8 C6          1.1954   -0.7094   -0.0132 C.ar      1 <0>        -0.1280
      9 C7          0.0021   -0.0041    0.0020 C.ar      1 <0>        -0.0142
     10 C8          1.1989   -2.1810   -0.0217 C.2       1 <0>         0.5640
     11 O1          2.2538   -2.7866   -0.0355 O.2       1 <0>        -0.5289
     12 N3          0.0334   -2.8577   -0.0142 N.am      1 <0>        -0.8511
     13 C9          5.8958    0.9364   -0.0493 C.ar      1 <0>         0.1838
     14 C10         6.5530    2.1598   -0.0433 C.ar      1 <0>        -0.1269
     15 C11         7.9334    2.2005   -0.0563 C.ar      1 <0>        -0.0581
     16 C12         8.6611    1.0247   -0.0759 C.ar      1 <0>        -0.1516
     17 C13         8.0097   -0.1951   -0.0819 C.ar      1 <0>        -0.0995
     18 C14         6.6295   -0.2426   -0.0627 C.ar      1 <0>        -0.0965
     19 C15        10.1673    1.0728   -0.0911 C.3       1 <0>         0.0811
     20 C16        10.6870    0.7967   -1.5176 C.3       1 <0>        -0.1347
     21 C17        11.9519   -0.0660   -1.2679 C.3       1 <0>        -0.1437
     22 C18        11.5206   -0.9055   -0.0396 C.3       1 <0>        -0.0115
     23 N4         10.7117    0.0182    0.7839 N.4       1 <0>        -0.5158
     24 H1         -0.9709    1.8905    0.0261 H         1 <0>         0.1383
     25 H2          1.0489    3.2100    0.0089 H         1 <0>         0.1359
     26 H3          4.0075    2.9978   -0.0204 H         1 <0>         0.1946
     27 H4         -0.9323   -0.5457    0.0084 H         1 <0>         0.1395
     28 H5         -0.8078   -2.3748   -0.0032 H         1 <0>         0.4007
     29 H6          0.0357   -3.8277   -0.0198 H         1 <0>         0.4086
     30 H7          5.9852    3.0784   -0.0287 H         1 <0>         0.1467
     31 H8          8.4451    3.1515   -0.0516 H         1 <0>         0.1472
     32 H9          8.5808   -1.1116   -0.0975 H         1 <0>         0.1323
     33 H10         6.1213   -1.1955   -0.0629 H         1 <0>         0.1555
     34 H11        10.5104    2.0501    0.2485 H         1 <0>         0.1495
     35 H12         9.9490    0.2405   -2.0957 H         1 <0>         0.1028
     36 H13        10.9487    1.7283   -2.0194 H         1 <0>         0.1168
     37 H14        12.1628   -0.7067   -2.1241 H         1 <0>         0.1192
     38 H15        12.8114    0.5608   -1.0301 H         1 <0>         0.1013
     39 H16        10.9193   -1.7583   -0.3549 H         1 <0>         0.1336
     40 H17        12.3957   -1.2420    0.5163 H         1 <0>         0.1402
     41 H18        11.2920    0.4344    1.4967 H         1 <0>         0.4330
     42 H19         9.9541   -0.4880    1.2172 H         1 <0>         0.4289
@<TRIPOS>BOND
     1    1    9 ar
     2    1    2 ar
     3    1   24 1
     4    2    3 ar
     5    2   25 1
     6    3    7 ar
     7    3    4 2
     8    4    5 1
     9    4   26 1
    10    5    6 1
    11    5   13 1
    12    6    7 2
    13    7    8 ar
    14    8    9 ar
    15    8   10 1
    16    9   27 1
    17   10   11 2
    18   10   12 am
    19   12   28 1
    20   12   29 1
    21   13   18 ar
    22   13   14 ar
    23   14   15 ar
    24   14   30 1
    25   15   16 ar
    26   15   31 1
    27   16   17 ar
    28   16   19 1
    29   17   18 ar
    30   17   32 1
    31   18   33 1
    32   19   23 1
    33   19   20 1
    34   19   34 1
    35   20   21 1
    36   20   35 1
    37   20   36 1
    38   21   22 1
    39   21   37 1
    40   21   38 1
    41   22   23 1
    42   22   39 1
    43   22   40 1
    44   23   41 1
    45   23   42 1
@<TRIPOS>MOLECULE
CHEMBL1098297__1
   42    45     0     0     0
SMALL
USER_CHARGES

@<TRIPOS>ATOM
      1 C1         -0.0168    1.3848    0.0097 C.ar      1 <0>        -0.1617
      2 C2          1.1177    2.1322    0.0028 C.ar      1 <0>        -0.0089
      3 C3          2.3826    1.5133   -0.0126 C.ar      1 <0>        -0.1980
      4 C4          3.6910    1.9652   -0.0227 C.2       1 <0>         0.0859
      5 N1          4.4959    0.8918   -0.0362 N.pl3     1 <0>        -0.2955
      6 N2          3.7292   -0.2794   -0.0351 N.2       1 <0>        -0.2648
      7 C5          2.4541    0.0429   -0.0212 C.ar      1 <0>         0.1502
      8 C6          1.1954   -0.7094   -0.0132 C.ar      1 <0>        -0.1279
      9 C7          0.0021   -0.0041    0.0020 C.ar      1 <0>        -0.0143
     10 C8          1.1989   -2.1810   -0.0217 C.2       1 <0>         0.5639
     11 O1          2.2538   -2.7866   -0.0355 O.2       1 <0>        -0.5289
     12 N3          0.0334   -2.8577   -0.0142 N.am      1 <0>        -0.8511
     13 C9          5.8958    0.9364   -0.0493 C.ar      1 <0>         0.1841
     14 C10         6.5530    2.1598   -0.0433 C.ar      1 <0>        -0.1269
     15 C11         7.9334    2.2005   -0.0563 C.ar      1 <0>        -0.0577
     16 C12         8.6611    1.0247   -0.0759 C.ar      1 <0>        -0.1499
     17 C13         8.0097   -0.1951   -0.0819 C.ar      1 <0>        -0.0985
     18 C14         6.6295   -0.2426   -0.0627 C.ar      1 <0>        -0.0959
     19 C15        10.1673    1.0728   -0.0911 C.3       1 <0>         0.0825
     20 C16        10.7326    0.7093    1.3046 C.3       1 <0>        -0.1354
     21 C17        12.1551    0.2054    0.9450 C.3       1 <0>        -0.1436
     22 C18        11.9392   -0.5115   -0.4044 C.3       1 <0>        -0.0113
     23 N4         10.7062    0.0372   -0.9982 N.4       1 <0>        -0.5165
     24 H1         -0.9709    1.8905    0.0261 H         1 <0>         0.1383
     25 H2          1.0489    3.2100    0.0089 H         1 <0>         0.1359
     26 H3          4.0075    2.9978   -0.0204 H         1 <0>         0.1947
     27 H4         -0.9323   -0.5457    0.0084 H         1 <0>         0.1395
     28 H5         -0.8078   -2.3748   -0.0032 H         1 <0>         0.4007
     29 H6          0.0357   -3.8277   -0.0198 H         1 <0>         0.4086
     30 H7          5.9852    3.0784   -0.0287 H         1 <0>         0.1468
     31 H8          8.4451    3.1515   -0.0516 H         1 <0>         0.1474
     32 H9          8.5808   -1.1116   -0.0975 H         1 <0>         0.1323
     33 H10         6.1213   -1.1955   -0.0629 H         1 <0>         0.1558
     34 H11        10.5116    2.0610   -0.3962 H         1 <0>         0.1518
     35 H12        10.7806    1.5882    1.9475 H         1 <0>         0.1206
     36 H13        10.1444   -0.0815    1.7702 H         1 <0>         0.1013
     37 H14        12.8432    1.0430    0.8306 H         1 <0>         0.1023
     38 H15        12.5186   -0.4931    1.6987 H         1 <0>         0.1151
     39 H16        12.7852   -0.3214   -1.0648 H         1 <0>         0.1366
     40 H17        11.8270   -1.5833   -0.2411 H         1 <0>         0.1337
     41 H18        10.0272   -0.7003   -1.1129 H         1 <0>         0.4259
     42 H19        10.9151    0.4475   -1.8960 H         1 <0>         0.4330
@<TRIPOS>BOND
     1    1    9 ar
     2    1    2 ar
     3    1   24 1
     4    2    3 ar
     5    2   25 1
     6    3    7 ar
     7    3    4 2
     8    4    5 1
     9    4   26 1
    10    5    6 1
    11    5   13 1
    12    6    7 2
    13    7    8 ar
    14    8    9 ar
    15    8   10 1
    16    9   27 1
    17   10   11 2
    18   10   12 am
    19   12   28 1
    20   12   29 1
    21   13   18 ar
    22   13   14 ar
    23   14   15 ar
    24   14   30 1
    25   15   16 ar
    26   15   31 1
    27   16   17 ar
    28   16   19 1
    29   17   18 ar
    30   17   32 1
    31   18   33 1
    32   19   23 1
    33   19   20 1
    34   19   34 1
    35   20   21 1
    36   20   35 1
    37   20   36 1
    38   21   22 1
    39   21   37 1
    40   21   38 1
    41   22   23 1
    42   22   39 1
    43   22   40 1
    44   23   41 1
    45   23   42 1
@<TRIPOS>MOLECULE
CHEMBL110332
   57    60     0     0     0
SMALL
USER_CHARGES

@<TRIPOS>ATOM
      1 C1         -0.0167    1.3818    0.0096 C.ar      1 <0>        -0.2914
      2 C2          1.1915    2.0609    0.0018 C.ar      1 <0>         0.1946
      3 N1          2.3197    1.3705   -0.0127 N.ar      1 <0>        -0.5712
      4 C3          2.3029    0.0457   -0.0197 C.ar      1 <0>         0.5650
      5 N2          1.1654   -0.6335   -0.0129 N.ar      1 <0>        -0.5716
      6 C4          0.0021   -0.0041    0.0020 C.ar      1 <0>         0.1945
      7 N3          3.5022   -0.6451   -0.0348 N.pl3     1 <0>        -0.5863
      8 C5          4.7817    0.0778   -0.0370 C.3       1 <0>         0.1146
      9 C6          5.6243   -0.4138    1.1465 C.3       1 <0>         0.0975
     10 N4          5.6410   -1.8833    1.1327 N.am      1 <0>        -0.6085
     11 C7          4.3614   -2.6062    1.1349 C.3       1 <0>         0.0878
     12 C8          3.5188   -2.1146   -0.0429 C.3       1 <0>         0.1127
     13 C9          6.8088   -2.5560    1.1180 C.2       1 <0>         0.5132
     14 O1          7.8585   -1.9485    1.1160 O.2       1 <0>        -0.5333
     15 C10         6.8102   -4.0629    1.1041 C.3       1 <0>         0.0999
     16 N5          8.1919   -4.5498    1.0895 N.am      1 <0>        -0.7177
     17 C11         8.4394   -5.8746    1.0754 C.2       1 <0>         0.5267
     18 O2          7.5184   -6.6636    1.0748 O.2       1 <0>        -0.5343
     19 C12         9.8607   -6.3754    1.0604 C.3       1 <0>        -0.1615
     20 C13         9.8621   -7.9054    1.0462 C.3       1 <0>         0.1215
     21 N6         11.2438   -8.3923    1.0317 N.am      1 <0>        -0.5311
     22 C14        11.8757   -8.6010   -0.1684 C.2       1 <0>         0.2140
     23 C15        13.1461   -9.0432   -0.1806 C.2       1 <0>        -0.2971
     24 C16        13.8003   -9.2948    1.0532 C.2       1 <0>         0.5601
     25 O3         14.9477   -9.7028    1.0664 O.2       1 <0>        -0.5069
     26 N7         13.1444   -9.0790    2.2099 N.am      1 <0>        -0.6577
     27 H1         13.5870   -9.2486    3.0562 H         1 <0>         0.4339
     28 C17        11.8779   -8.6235    2.1939 C.2       1 <0>         0.6975
     29 O4         11.2985   -8.4236    3.2439 O.2       1 <0>        -0.5313
     30 C18        13.8989   -9.2732   -1.4632 C.3       1 <0>         0.1366
     31 O5         12.9954   -9.3280   -2.5669 O.3       1 <0>        -0.3664
     32 C19        12.0988   -8.2118   -2.6125 C.3       1 <0>         0.0609
     33 C20        11.1194   -8.3318   -1.4434 C.3       1 <0>        -0.1304
     34 H2         -0.9525    1.9208    0.0259 H         1 <0>         0.1454
     35 H3          1.2116    3.1407    0.0070 H         1 <0>         0.1682
     36 H4         -0.9219   -0.5632    0.0082 H         1 <0>         0.1684
     37 H5          5.3111   -0.1183   -0.9694 H         1 <0>         0.0721
     38 H6          4.5978    1.1474    0.0642 H         1 <0>         0.1133
     39 H7          6.6423   -0.0356    1.0529 H         1 <0>         0.1087
     40 H8          5.1849   -0.0617    2.0797 H         1 <0>         0.0758
     41 H9          4.5453   -3.6758    1.0337 H         1 <0>         0.1022
     42 H10         3.8320   -2.4101    2.0673 H         1 <0>         0.0814
     43 H11         2.5011   -2.4925    0.0544 H         1 <0>         0.1150
     44 H12         3.9562   -2.4704   -0.9758 H         1 <0>         0.0727
     45 H13         6.3033   -4.4350    1.9944 H         1 <0>         0.1029
     46 H14         6.2903   -4.4185    0.2145 H         1 <0>         0.1033
     47 H15         8.9285   -3.9188    1.0899 H         1 <0>         0.4143
     48 H16        10.3676   -6.0034    0.1701 H         1 <0>         0.1030
     49 H17        10.3806   -6.0198    1.9499 H         1 <0>         0.1087
     50 H18         9.3551   -8.2774    1.9365 H         1 <0>         0.1167
     51 H19         9.3422   -8.2610    0.1567 H         1 <0>         0.1098
     52 H20        14.6069   -8.4588   -1.6168 H         1 <0>         0.0720
     53 H21        14.4449  -10.2143   -1.3971 H         1 <0>         0.1152
     54 H22        12.6634   -7.2835   -2.5246 H         1 <0>         0.0654
     55 H23        11.5495   -8.2203   -3.5539 H         1 <0>         0.1136
     56 H24        10.4269   -9.1517   -1.6338 H         1 <0>         0.1136
     57 H25        10.5594   -7.4021   -1.3431 H         1 <0>         0.1040
@<TRIPOS>BOND
     1    1    6 ar
     2    1    2 ar
     3    1   34 1
     4    2    3 ar
     5    2   35 1
     6    3    4 ar
     7    4    5 ar
     8    4    7 1
     9    5    6 ar
    10    6   36 1
    11    7   12 1
    12    7    8 1
    13    8    9 1
    14    8   37 1
    15    8   38 1
    16    9   10 1
    17    9   39 1
    18    9   40 1
    19   10   11 1
    20   10   13 am
    21   11   12 1
    22   11   41 1
    23   11   42 1
    24   12   43 1
    25   12   44 1
    26   13   14 2
    27   13   15 1
    28   15   16 1
    29   15   45 1
    30   15   46 1
    31   16   17 am
    32   16   47 1
    33   17   18 2
    34   17   19 1
    35   19   20 1
    36   19   48 1
    37   19   49 1
    38   20   21 1
    39   20   50 1
    40   20   51 1
    41   21   28 am
    42   21   22 1
    43   22   33 1
    44   22   23 2
    45   23   24 1
    46   23   30 1
    47   24   25 2
    48   24   26 am
    49   26   27 1
    50   26   28 am
    51   28   29 2
    52   30   31 1
    53   30   52 1
    54   30   53 1
    55   31   32 1
    56   32   33 1
    57   32   54 1
    58   32   55 1
    59   33   56 1
    60   33   57 1
@<TRIPOS>MOLECULE
CHEMBL356104
   21    23     0     0     0
SMALL
USER_CHARGES

@<TRIPOS>ATOM
      1 C1         -0.0167    1.3805    0.0096 C.ar      1 <0>        -0.1116
      2 C2          1.1351    2.1579    0.0028 C.ar      1 <0>        -0.0695
      3 C3          2.3713    1.5192   -0.0122 C.ar      1 <0>        -0.1014
      4 C4          2.3547    0.1271   -0.0194 C.ar      1 <0>        -0.1032
      5 C5          1.2219   -0.6732   -0.0127 C.ar      1 <0>         0.0979
      6 C6          0.0021   -0.0041    0.0020 C.ar      1 <0>        -0.0890
      7 N1          1.6969   -1.9637   -0.0237 N.pl3     1 <0>        -0.5912
      8 H1          1.1417   -2.7591   -0.0230 H         1 <0>         0.4220
      9 C7          3.0763   -1.9644   -0.0366 C.2       1 <0>         0.0978
     10 C8          3.5371   -0.7118   -0.0346 C.2       1 <0>        -0.2056
     11 C9          4.8535    0.0248   -0.0436 C.3       1 <0>         0.1957
     12 N2          4.8215    1.4961   -0.0365 N.am      1 <0>        -0.7198
     13 C10         3.6719    2.2036   -0.0205 C.2       1 <0>         0.5681
     14 O1          3.7129    3.4191   -0.0152 O.2       1 <0>        -0.5377
     15 H2         -0.9737    1.8808    0.0261 H         1 <0>         0.1333
     16 H3          1.0720    3.2360    0.0087 H         1 <0>         0.1395
     17 H4         -0.9235   -0.5606    0.0083 H         1 <0>         0.1297
     18 H5          3.6939   -2.8504   -0.0467 H         1 <0>         0.1794
     19 H6          5.4214   -0.2993    0.8286 H         1 <0>         0.0760
     20 H7          5.4048   -0.2912   -0.9292 H         1 <0>         0.0761
     21 H8          5.6631    1.9784   -0.0420 H         1 <0>         0.4136
@<TRIPOS>BOND
     1    1    6 ar
     2    1    2 ar
     3    1   15 1
     4    2    3 ar
     5    2   16 1
     6    3   13 1
     7    3    4 ar
     8    4   10 1
     9    4    5 ar
    10    5    6 ar
    11    5    7 1
    12    6   17 1
    13    7    8 1
    14    7    9 1
    15    9   10 2
    16    9   18 1
    17   10   11 1
    18   11   12 1
    19   11   19 1
    20   11   20 1
    21   12   13 am
    22   12   21 1
    23   13   14 2
@<TRIPOS>MOLECULE
CHEMBL603407
   52    55     0     0     0
SMALL
USER_CHARGES

@<TRIPOS>ATOM
      1 C1         -6.1936   -2.4697   -1.1933 C.3       1 <0>        -0.0517
      2 N1         -5.4449   -3.6501   -1.6450 N.4       1 <0>        -0.5077
      3 C2         -4.0128   -3.3283   -1.7048 C.3       1 <0>         0.0238
      4 C3         -3.7743   -2.2614   -2.7758 C.3       1 <0>        -0.1585
      5 C4         -2.2853   -1.9034   -2.8115 C.3       1 <0>         0.1160
      6 N2         -1.5072   -3.1349   -3.0028 N.am      1 <0>        -0.6203
      7 C5         -1.7255   -4.2587   -2.0818 C.3       1 <0>         0.1049
      8 C6         -3.2208   -4.5903   -2.0543 C.3       1 <0>        -0.1599
      9 C7         -0.6106   -3.2321   -4.0043 C.2       1 <0>         0.5705
     10 O1         -0.5389   -2.3552   -4.8433 O.2       1 <0>        -0.5000
     11 C8          0.2849   -4.4040   -4.0827 C.ar      1 <0>        -0.1741
     12 C9          0.9445   -4.8609   -2.9396 C.ar      1 <0>        -0.0578
     13 C10         1.7786   -5.9556   -3.0194 C.ar      1 <0>        -0.0992
     14 C11         1.9648   -6.6031   -4.2291 C.ar      1 <0>        -0.0660
     15 C12         1.3169   -6.1583   -5.3660 C.ar      1 <0>        -0.1470
     16 C13         0.4720   -5.0651   -5.3005 C.ar      1 <0>         0.1554
     17 F1         -0.1656   -4.6338   -6.4108 F         1 <0>        -0.1195
     18 C14         2.4904   -6.4489   -1.7862 C.3       1 <0>        -0.0395
     19 C15         3.7409   -5.6364   -1.5692 C.2       1 <0>         0.0056
     20 C16         3.6751   -4.5147   -0.8673 C.2       1 <0>         0.0973
     21 N3          4.7916   -3.7281   -0.6361 N.am      1 <0>        -0.6451
     22 H1          4.7087   -2.9125   -0.1175 H         1 <0>         0.4270
     23 C17         5.9954   -4.0919   -1.1292 C.2       1 <0>         0.5819
     24 O2          6.9823   -3.4061   -0.9302 O.2       1 <0>        -0.4910
     25 C18         6.0884   -5.3273   -1.9069 C.2       1 <0>        -0.0368
     26 N4          4.9459   -6.0797   -2.1045 N.pl3     1 <0>        -0.3415
     27 C19         5.2759   -7.1702   -2.8393 C.2       1 <0>         0.0917
     28 C20         6.6070   -7.1330   -3.1108 C.2       1 <0>        -0.0814
     29 C21         7.1311   -5.9718   -2.5358 C.2       1 <0>        -0.0720
     30 Cl1         7.4966   -8.3124   -4.0226 Cl        1 <0>        -0.0064
     31 Cl2         4.1766   -8.4130   -3.3499 Cl        1 <0>         0.0180
     32 H2         -5.8456   -2.1757   -0.2031 H         1 <0>         0.1250
     33 H3         -6.0345   -1.6490   -1.8928 H         1 <0>         0.1250
     34 H4         -7.2562   -2.7085   -1.1489 H         1 <0>         0.1286
     35 H5         -5.5921   -4.4098   -0.9975 H         1 <0>         0.4312
     36 H6         -3.6848   -2.9502   -0.7365 H         1 <0>         0.1435
     37 H7         -4.0790   -2.6478   -3.7484 H         1 <0>         0.0940
     38 H8         -4.3570   -1.3713   -2.5387 H         1 <0>         0.1035
     39 H9         -2.0939   -1.2182   -3.6374 H         1 <0>         0.1148
     40 H10        -1.9998   -1.4333   -1.8704 H         1 <0>         0.0844
     41 H11        -1.1647   -5.1276   -2.4262 H         1 <0>         0.1121
     42 H12        -1.3944   -3.9806   -1.0812 H         1 <0>         0.0864
     43 H13        -3.4095   -5.3578   -1.3036 H         1 <0>         0.1050
     44 H14        -3.5307   -4.9548   -3.0337 H         1 <0>         0.0943
     45 H15         0.8016   -4.3574   -1.9949 H         1 <0>         0.1384
     46 H16         2.6199   -7.4599   -4.2845 H         1 <0>         0.1466
     47 H17         1.4674   -6.6678   -6.3063 H         1 <0>         0.1505
     48 H18         1.8346   -6.3443   -0.9218 H         1 <0>         0.1098
     49 H19         2.7566   -7.4979   -1.9155 H         1 <0>         0.1050
     50 H20         2.7226   -4.2042   -0.4637 H         1 <0>         0.1796
     51 H21         8.1606   -5.6472   -2.5687 H         1 <0>         0.1760
     52 H22        -5.7670   -3.9223   -2.5616 H         1 <0>         0.4294
@<TRIPOS>BOND
     1    1    2 1
     2    1   32 1
     3    1   33 1
     4    1   34 1
     5    2    3 1
     6    2   35 1
     7    2   52 1
     8    3    8 1
     9    3    4 1
    10    3   36 1
    11    4    5 1
    12    4   37 1
    13    4   38 1
    14    5    6 1
    15    5   39 1
    16    5   40 1
    17    6    7 1
    18    6    9 am
    19    7    8 1
    20    7   41 1
    21    7   42 1
    22    8   43 1
    23    8   44 1
    24    9   10 2
    25    9   11 1
    26   11   16 ar
    27   11   12 ar
    28   12   13 ar
    29   12   45 1
    30   13   14 ar
    31   13   18 1
    32   14   15 ar
    33   14   46 1
    34   15   16 ar
    35   15   47 1
    36   16   17 1
    37   18   19 1
    38   18   48 1
    39   18   49 1
    40   19   26 1
    41   19   20 2
    42   20   21 1
    43   20   50 1
    44   21   22 1
    45   21   23 am
    46   23   24 2
    47   23   25 1
    48   25   29 2
    49   25   26 1
    50   26   27 1
    51   27   28 2
    52   27   31 1
    53   28   29 1
    54   28   30 1
    55   29   51 1
@<TRIPOS>MOLECULE
CHEMBL596713
   59    64     0     0     0
SMALL
USER_CHARGES

@<TRIPOS>ATOM
      1 C1          5.0995   -3.9690   -2.7812 C.ar      1 <0>        -0.1215
      2 C2          6.4617   -3.8207   -2.5353 C.ar      1 <0>        -0.0782
      3 C3          6.9430   -3.7579   -1.2615 C.ar      1 <0>        -0.1021
      4 C4          6.0545   -3.8438   -0.1811 C.ar      1 <0>         0.1631
      5 C5          4.6691   -3.9946   -0.4334 C.ar      1 <0>        -0.1617
      6 C6          4.2076   -4.0557   -1.7530 C.ar      1 <0>        -0.0714
      7 C7          3.7924   -4.0784    0.6756 C.ar      1 <0>         0.4722
      8 N1          4.3145   -4.0113    1.8931 N.ar      1 <0>        -0.5392
      9 C8          5.6170   -3.8699    2.0799 C.ar      1 <0>         0.3141
     10 N2          6.4753   -3.7870    1.0912 N.ar      1 <0>        -0.5102
     11 N3          2.4338   -4.2253    0.4948 N.pl3     1 <0>        -0.6614
     12 C9          1.5557   -3.0483    0.4346 C.3       1 <0>         0.1343
     13 C10         0.7588   -3.0980   -0.8749 C.3       1 <0>         0.0967
     14 N4          0.1625   -4.4343   -1.0113 N.am      1 <0>        -0.6025
     15 C11         1.0406   -5.6112   -0.9511 C.3       1 <0>         0.0811
     16 C12         1.8383   -5.5613    0.3528 C.3       1 <0>         0.1335
     17 C13        -1.1659   -4.5779   -1.1881 C.2       1 <0>         0.5654
     18 O1         -1.8763   -3.5958   -1.2813 O.2       1 <0>        -0.5154
     19 C14        -1.7584   -5.9283   -1.2686 C.ar      1 <0>        -0.1592
     20 C15        -1.2669   -6.8567   -2.1890 C.ar      1 <0>        -0.0584
     21 C16        -1.8241   -8.1157   -2.2587 C.ar      1 <0>        -0.1005
     22 C17        -2.8695   -8.4625   -1.4197 C.ar      1 <0>        -0.0673
     23 C18        -3.3632   -7.5508   -0.5059 C.ar      1 <0>        -0.1477
     24 C19        -2.8105   -6.2857   -0.4198 C.ar      1 <0>         0.1519
     25 F1         -3.2895   -5.3964    0.4774 F         1 <0>        -0.1212
     26 C20        -1.2939   -9.1176   -3.2517 C.3       1 <0>        -0.0417
     27 C21        -1.9547   -8.8982   -4.5882 C.2       1 <0>         0.0075
     28 C22        -1.4739   -7.9759   -5.4087 C.2       1 <0>         0.0978
     29 N5         -2.0404   -7.7309   -6.6489 N.am      1 <0>        -0.6434
     30 H1         -1.6633   -7.0483   -7.2256 H         1 <0>         0.4271
     31 C23        -3.1154   -8.4388   -7.0587 C.2       1 <0>         0.5823
     32 O2         -3.6195   -8.2300   -8.1478 O.2       1 <0>        -0.4967
     33 C24        -3.6609   -9.4618   -6.1666 C.2       1 <0>        -0.0374
     34 N6         -3.0556   -9.6714   -4.9418 N.pl3     1 <0>        -0.3386
     35 C25        -3.7241  -10.6613   -4.3004 C.2       1 <0>         0.0932
     36 C26        -4.7408  -11.0923   -5.0924 C.2       1 <0>        -0.0838
     37 C27        -4.7183  -10.3390   -6.2696 C.2       1 <0>        -0.0751
     38 Cl1        -5.8757  -12.3474   -4.7047 Cl        1 <0>        -0.0111
     39 Cl2        -3.3425  -11.2788   -2.7234 Cl        1 <0>         0.0174
     40 H2          4.7437   -4.0115   -3.8000 H         1 <0>         0.1315
     41 H3          7.1479   -3.7548   -3.3667 H         1 <0>         0.1356
     42 H4          8.0025   -3.6431   -1.0860 H         1 <0>         0.1417
     43 H5          3.1530   -4.1704   -1.9558 H         1 <0>         0.1331
     44 H6          5.9903   -3.8203    3.0921 H         1 <0>         0.1973
     45 H7          0.8693   -3.0603    1.2812 H         1 <0>         0.0691
     46 H8          2.1584   -2.1405    0.4618 H         1 <0>         0.0849
     47 H9         -0.0300   -2.3461   -0.8518 H         1 <0>         0.1068
     48 H10         1.4251   -2.9071   -1.7161 H         1 <0>         0.0756
     49 H11         0.4379   -6.5191   -0.9783 H         1 <0>         0.1029
     50 H12         1.7270   -5.5993   -1.7977 H         1 <0>         0.0783
     51 H13         2.6275   -6.3127    0.3260 H         1 <0>         0.0849
     52 H14         1.1724   -5.7563    1.1935 H         1 <0>         0.0686
     53 H15        -0.4520   -6.5886   -2.8451 H         1 <0>         0.1390
     54 H16        -3.3016   -9.4505   -1.4799 H         1 <0>         0.1398
     55 H17        -4.1794   -7.8279    0.1449 H         1 <0>         0.1475
     56 H18        -0.2160   -8.9921   -3.3543 H         1 <0>         0.1105
     57 H19        -1.5104  -10.1266   -2.9006 H         1 <0>         0.1049
     58 H20        -0.6150   -7.3976   -5.1015 H         1 <0>         0.1819
     59 H21        -5.3946  -10.4344   -7.1062 H         1 <0>         0.1741
@<TRIPOS>BOND
     1    1    6 ar
     2    1    2 ar
     3    1   40 1
     4    2    3 ar
     5    2   41 1
     6    3    4 ar
     7    3   42 1
     8    4   10 ar
     9    4    5 ar
    10    5    6 ar
    11    5    7 ar
    12    6   43 1
    13    7    8 ar
    14    7   11 1
    15    8    9 ar
    16    9   10 ar
    17    9   44 1
    18   11   16 1
    19   11   12 1
    20   12   13 1
    21   12   45 1
    22   12   46 1
    23   13   14 1
    24   13   47 1
    25   13   48 1
    26   14   15 1
    27   14   17 am
    28   15   16 1
    29   15   49 1
    30   15   50 1
    31   16   51 1
    32   16   52 1
    33   17   18 2
    34   17   19 1
    35   19   24 ar
    36   19   20 ar
    37   20   21 ar
    38   20   53 1
    39   21   22 ar
    40   21   26 1
    41   22   23 ar
    42   22   54 1
    43   23   24 ar
    44   23   55 1
    45   24   25 1
    46   26   27 1
    47   26   56 1
    48   26   57 1
    49   27   34 1
    50   27   28 2
    51   28   29 1
    52   28   58 1
    53   29   30 1
    54   29   31 am
    55   31   32 2
    56   31   33 1
    57   33   37 2
    58   33   34 1
    59   34   35 1
    60   35   36 2
    61   35   39 1
    62   36   37 1
    63   36   38 1
    64   37   59 1
@<TRIPOS>MOLECULE
CHEMBL603448
   54    58     0     0     0
SMALL
USER_CHARGES

@<TRIPOS>ATOM
      1 C1          5.8707    1.4013   -7.6211 C.ar      1 <0>        -0.1194
      2 C2          6.2870    1.7700   -6.3523 C.ar      1 <0>        -0.1591
      3 C3          5.4652    2.6096   -5.6044 C.ar      1 <0>         0.1690
      4 C4          4.2657    3.0437   -6.1549 C.ar      1 <0>         0.0266
      5 N1          3.9078    2.6686   -7.3665 N.ar      1 <0>        -0.4440
      6 C5          4.6634    1.8746   -8.0999 C.ar      1 <0>         0.0369
      7 N2          5.8411    3.0089   -4.3195 N.pl3     1 <0>        -0.6233
      8 C6          5.0292    3.9777   -3.5697 C.3       1 <0>         0.1062
      9 C7          4.6493    3.3577   -2.2193 C.3       1 <0>         0.0967
     10 N3          5.8636    2.8162   -1.5930 N.am      1 <0>        -0.6048
     11 C8          6.6755    1.8474   -2.3428 C.3       1 <0>         0.0823
     12 C9          7.0523    2.4632   -3.6910 C.3       1 <0>         0.1059
     13 C10         6.2262    3.2014   -0.3535 C.2       1 <0>         0.5649
     14 O1          5.5077    3.9442    0.2868 O.2       1 <0>        -0.5146
     15 C11         7.4965    2.7213    0.2270 C.ar      1 <0>        -0.1596
     16 C12         7.7676    1.3525    0.2872 C.ar      1 <0>        -0.0589
     17 C13         8.9554    0.9109    0.8298 C.ar      1 <0>        -0.1001
     18 C14         9.8801    1.8197    1.3157 C.ar      1 <0>        -0.0671
     19 C15         9.6210    3.1762    1.2610 C.ar      1 <0>        -0.1474
     20 C16         8.4364    3.6349    0.7138 C.ar      1 <0>         0.1515
     21 F1          8.1856    4.9612    0.6554 F         1 <0>        -0.1215
     22 C17         9.2482   -0.5659    0.8950 C.3       1 <0>        -0.0413
     23 C18         8.5847   -1.1564    2.1124 C.2       1 <0>         0.0068
     24 C19         7.3128   -1.5216    2.0482 C.2       1 <0>         0.0981
     25 N4          6.6518   -2.0696    3.1352 N.am      1 <0>        -0.6434
     26 H1          5.7200   -2.3267    3.0543 H         1 <0>         0.4273
     27 C20         7.2991   -2.2480    4.3073 C.2       1 <0>         0.5823
     28 O2          6.7254   -2.7295    5.2679 O.2       1 <0>        -0.4963
     29 C21         8.7041   -1.8508    4.3979 C.2       1 <0>        -0.0373
     30 N5          9.3196   -1.3139    3.2829 N.pl3     1 <0>        -0.3385
     31 C22        10.6069   -1.0319    3.6014 C.2       1 <0>         0.0934
     32 C23        10.8282   -1.3827    4.8955 C.2       1 <0>        -0.0837
     33 C24         9.6345   -1.8932    5.4132 C.2       1 <0>        -0.0750
     34 Cl1        12.3255   -1.2137    5.7577 Cl        1 <0>        -0.0110
     35 Cl2        11.7822   -0.3365    2.5296 Cl        1 <0>         0.0169
     36 H2          6.4845    0.7550   -8.2310 H         1 <0>         0.1349
     37 H3          7.2254    1.4148   -5.9528 H         1 <0>         0.1332
     38 H4          3.6201    3.6948   -5.5842 H         1 <0>         0.1526
     39 H5          4.3345    1.5904   -9.0885 H         1 <0>         0.1533
     40 H6          5.6054    4.8882   -3.4051 H         1 <0>         0.0730
     41 H7          4.1252    4.2106   -4.1325 H         1 <0>         0.0997
     42 H8          4.2151    4.1221   -1.5750 H         1 <0>         0.1074
     43 H9          3.9289    2.5547   -2.3752 H         1 <0>         0.0777
     44 H10         7.5794    1.6145   -1.7800 H         1 <0>         0.1034
     45 H11         6.0993    0.9369   -2.5074 H         1 <0>         0.0796
     46 H12         7.4842    1.6962   -4.3338 H         1 <0>         0.0972
     47 H13         7.7759    3.2634   -3.5351 H         1 <0>         0.0708
     48 H14         7.0478    0.6414   -0.0903 H         1 <0>         0.1388
     49 H15        10.8086    1.4668    1.7398 H         1 <0>         0.1404
     50 H16        10.3466    3.8794    1.6425 H         1 <0>         0.1479
     51 H17         8.8626   -1.0526   -0.0009 H         1 <0>         0.1107
     52 H18        10.3254   -0.7204    0.9574 H         1 <0>         0.1050
     53 H19         6.7754   -1.3878    1.1210 H         1 <0>         0.1818
     54 H20         9.4747   -2.2616    6.4158 H         1 <0>         0.1743
@<TRIPOS>BOND
     1    1    6 ar
     2    1    2 ar
     3    1   36 1
     4    2    3 ar
     5    2   37 1
     6    3    4 ar
     7    3    7 1
     8    4    5 ar
     9    4   38 1
    10    5    6 ar
    11    6   39 1
    12    7   12 1
    13    7    8 1
    14    8    9 1
    15    8   40 1
    16    8   41 1
    17    9   10 1
    18    9   42 1
    19    9   43 1
    20   10   11 1
    21   10   13 am
    22   11   12 1
    23   11   44 1
    24   11   45 1
    25   12   46 1
    26   12   47 1
    27   13   14 2
    28   13   15 1
    29   15   20 ar
    30   15   16 ar
    31   16   17 ar
    32   16   48 1
    33   17   18 ar
    34   17   22 1
    35   18   19 ar
    36   18   49 1
    37   19   20 ar
    38   19   50 1
    39   20   21 1
    40   22   23 1
    41   22   51 1
    42   22   52 1
    43   23   30 1
    44   23   24 2
    45   24   25 1
    46   24   53 1
    47   25   26 1
    48   25   27 am
    49   27   28 2
    50   27   29 1
    51   29   33 2
    52   29   30 1
    53   30   31 1
    54   31   32 2
    55   31   35 1
    56   32   33 1
    57   32   34 1
    58   33   54 1
@<TRIPOS>MOLECULE
CHEMBL603448__1
   55    59     0     0     0
SMALL
USER_CHARGES

@<TRIPOS>ATOM
      1 C1          5.8707    1.4013   -7.6211 C.ar      1 <0>        -0.0723
      2 C2          6.2870    1.7700   -6.3523 C.ar      1 <0>        -0.0861
      3 C3          5.4652    2.6096   -5.6044 C.ar      1 <0>         0.2203
      4 C4          4.2657    3.0437   -6.1549 C.ar      1 <0>         0.0197
      5 N1          3.9078    2.6686   -7.3665 N.ar      1 <0>        -0.3944
      6 C5          4.6634    1.8746   -8.0999 C.ar      1 <0>         0.0724
      7 N2          5.8411    3.0089   -4.3195 N.pl3     1 <0>        -0.5935
      8 C6          5.0292    3.9777   -3.5697 C.3       1 <0>         0.0930
      9 C7          4.6493    3.3577   -2.2193 C.3       1 <0>         0.0965
     10 N3          5.8636    2.8162   -1.5930 N.am      1 <0>        -0.6136
     11 C8          6.6755    1.8474   -2.3428 C.3       1 <0>         0.0818
     12 C9          7.0523    2.4632   -3.6910 C.3       1 <0>         0.0939
     13 C10         6.2262    3.2014   -0.3535 C.2       1 <0>         0.5699
     14 O1          5.5077    3.9442    0.2868 O.2       1 <0>        -0.5021
     15 C11         7.4965    2.7213    0.2270 C.ar      1 <0>        -0.1678
     16 C12         7.7676    1.3525    0.2872 C.ar      1 <0>        -0.0621
     17 C13         8.9554    0.9109    0.8298 C.ar      1 <0>        -0.0965
     18 C14         9.8801    1.8197    1.3157 C.ar      1 <0>        -0.0628
     19 C15         9.6210    3.1762    1.2610 C.ar      1 <0>        -0.1443
     20 C16         8.4364    3.6349    0.7138 C.ar      1 <0>         0.1526
     21 F1          8.1856    4.9612    0.6554 F         1 <0>        -0.1210
     22 C17         9.2482   -0.5659    0.8950 C.3       1 <0>        -0.0417
     23 C18         8.5847   -1.1564    2.1124 C.2       1 <0>         0.0061
     24 C19         7.3128   -1.5216    2.0482 C.2       1 <0>         0.0973
     25 N4          6.6518   -2.0696    3.1352 N.am      1 <0>        -0.6449
     26 H1          5.7200   -2.3267    3.0543 H         1 <0>         0.4269
     27 C20         7.2991   -2.2480    4.3073 C.2       1 <0>         0.5820
     28 O2          6.7254   -2.7295    5.2679 O.2       1 <0>        -0.4917
     29 C21         8.7041   -1.8508    4.3979 C.2       1 <0>        -0.0372
     30 N5          9.3196   -1.3139    3.2829 N.pl3     1 <0>        -0.3413
     31 C22        10.6069   -1.0319    3.6014 C.2       1 <0>         0.0923
     32 C23        10.8282   -1.3827    4.8955 C.2       1 <0>        -0.0819
     33 C24         9.6345   -1.8932    5.4132 C.2       1 <0>        -0.0724
     34 Cl1        12.3255   -1.2137    5.7577 Cl        1 <0>        -0.0071
     35 Cl2        11.7822   -0.3365    2.5296 Cl        1 <0>         0.0163
     36 H2          6.4845    0.7550   -8.2310 H         1 <0>         0.1857
     37 H3          7.2254    1.4148   -5.9528 H         1 <0>         0.1724
     38 H4          3.6201    3.6948   -5.5842 H         1 <0>         0.2015
     39 H5          4.3345    1.5904   -9.0885 H         1 <0>         0.2072
     40 H6          5.6054    4.8882   -3.4051 H         1 <0>         0.0952
     41 H7          4.1252    4.2106   -4.1325 H         1 <0>         0.0996
     42 H8          4.2151    4.1221   -1.5750 H         1 <0>         0.1174
     43 H9          3.9289    2.5547   -2.3752 H         1 <0>         0.0808
     44 H10         7.5794    1.6145   -1.7800 H         1 <0>         0.1160
     45 H11         6.0993    0.9369   -2.5074 H         1 <0>         0.0839
     46 H12         7.4842    1.6962   -4.3338 H         1 <0>         0.1053
     47 H13         7.7759    3.2634   -3.5351 H         1 <0>         0.0932
     48 H14         7.0478    0.6414   -0.0903 H         1 <0>         0.1383
     49 H15        10.8086    1.4668    1.7398 H         1 <0>         0.1431
     50 H16        10.3466    3.8794    1.6425 H         1 <0>         0.1507
     51 H17         8.8626   -1.0526   -0.0009 H         1 <0>         0.1096
     52 H18        10.3254   -0.7204    0.9574 H         1 <0>         0.1064
     53 H19         6.7754   -1.3878    1.1210 H         1 <0>         0.1791
     54 H20         9.4747   -2.2616    6.4158 H         1 <0>         0.1757
     55 H21         3.0655    2.9852   -7.7288 H         1 <0>         0.4527
@<TRIPOS>BOND
     1    1    6 ar
     2    1    2 ar
     3    1   36 1
     4    2    3 ar
     5    2   37 1
     6    3    4 ar
     7    3    7 1
     8    4    5 ar
     9    4   38 1
    10    5    6 ar
    11    5   55 1
    12    6   39 1
    13    7   12 1
    14    7    8 1
    15    8    9 1
    16    8   40 1
    17    8   41 1
    18    9   10 1
    19    9   42 1
    20    9   43 1
    21   10   11 1
    22   10   13 am
    23   11   12 1
    24   11   44 1
    25   11   45 1
    26   12   46 1
    27   12   47 1
    28   13   14 2
    29   13   15 1
    30   15   20 ar
    31   15   16 ar
    32   16   17 ar
    33   16   48 1
    34   17   18 ar
    35   17   22 1
    36   18   19 ar
    37   18   49 1
    38   19   20 ar
    39   19   50 1
    40   20   21 1
    41   22   23 1
    42   22   51 1
    43   22   52 1
    44   23   30 1
    45   23   24 2
    46   24   25 1
    47   24   53 1
    48   25   26 1
    49   25   27 am
    50   27   28 2
    51   27   29 1
    52   29   33 2
    53   29   30 1
    54   30   31 1
    55   31   32 2
    56   31   35 1
    57   32   33 1
    58   32   34 1
    59   33   54 1
@<TRIPOS>MOLECULE
CHEMBL598145
   57    60     0     0     0
SMALL
USER_CHARGES

@<TRIPOS>ATOM
      1 C1          0.0603    1.5449    0.0073 C.3       1 <0>        -0.1247
      2 C2          0.0859    0.0382   -0.0138 C.2       1 <0>        -0.0475
      3 C3          0.1113   -0.6452   -1.1963 C.2       1 <0>        -0.1506
      4 C4          0.1344   -2.0556   -1.1414 C.2       1 <0>         0.4820
      5 O1          0.1578   -2.7125   -2.1698 O.2       1 <0>        -0.5222
      6 N1          0.1306   -2.6686    0.0577 N.am      1 <0>        -0.4489
      7 H1          0.1465   -3.6378    0.0933 H         1 <0>         0.4411
      8 N2          0.1070   -2.0025    1.1550 N.2       1 <0>        -0.2129
      9 C5          0.0902   -0.6988    1.1819 C.2       1 <0>         0.0644
     10 C6          0.0695    0.0220    2.5052 C.3       1 <0>        -0.0110
     11 C7          0.0788   -0.9852    3.6261 C.ar      1 <0>        -0.0822
     12 C8         -1.1171   -1.4706    4.1275 C.ar      1 <0>        -0.0470
     13 C9         -1.1195   -2.3945    5.1553 C.ar      1 <0>        -0.1484
     14 C10         0.0756   -2.8410    5.6899 C.ar      1 <0>         0.1491
     15 C11         1.2861   -2.3545    5.1870 C.ar      1 <0>        -0.1740
     16 C12         1.2780   -1.4246    4.1450 C.ar      1 <0>        -0.0526
     17 C13         2.5671   -2.8251    5.7518 C.2       1 <0>         0.5735
     18 O2          2.8015   -4.0162    5.8172 O.2       1 <0>        -0.4980
     19 N3          3.4762   -1.9340    6.1946 N.am      1 <0>        -0.6192
     20 C14         3.1558   -0.5010    6.2460 C.3       1 <0>         0.0881
     21 C15         3.4227    0.0131    7.6646 C.3       1 <0>        -0.1500
     22 C16         4.8554   -0.3332    8.0677 C.3       1 <0>         0.0583
     23 C17         5.1380    0.2081    9.4828 C.3       1 <0>        -0.1310
     24 C18         6.6043    0.7056    9.3787 C.3       1 <0>        -0.1439
     25 C19         6.6491    1.2475    7.9280 C.3       1 <0>        -0.0083
     26 N4          5.8074    0.3131    7.1494 N.4       1 <0>        -0.5132
     27 C20         5.0584   -1.8477    8.0502 C.3       1 <0>        -0.1490
     28 C21         4.8037   -2.3783    6.6406 C.3       1 <0>         0.0964
     29 F1          0.0731   -3.7438    6.6950 F         1 <0>        -0.1236
     30 C22         0.1140    0.0825   -2.5160 C.3       1 <0>        -0.1029
     31 H2          1.0816    1.9255    0.0194 H         1 <0>         0.0866
     32 H3         -0.4537    1.9120   -0.8810 H         1 <0>         0.0846
     33 H4         -0.4655    1.8868    0.8988 H         1 <0>         0.0802
     34 H5          0.9485    0.6617    2.5843 H         1 <0>         0.1009
     35 H6         -0.8311    0.6322    2.5725 H         1 <0>         0.1068
     36 H7         -2.0529   -1.1251    3.7135 H         1 <0>         0.1412
     37 H8         -2.0561   -2.7682    5.5420 H         1 <0>         0.1478
     38 H9          2.2093   -1.0474    3.7492 H         1 <0>         0.1329
     39 H10         3.7834    0.0394    5.5374 H         1 <0>         0.0690
     40 H11         2.1057   -0.3521    5.9949 H         1 <0>         0.1181
     41 H12         3.2890    1.0945    7.6907 H         1 <0>         0.1062
     42 H13         2.7260   -0.4567    8.3588 H         1 <0>         0.1185
     43 H14         4.4669    1.0332    9.7212 H         1 <0>         0.1041
     44 H15         5.0522   -0.5866   10.2239 H         1 <0>         0.1146
     45 H16         6.7988    1.5006   10.0986 H         1 <0>         0.1192
     46 H17         7.3062   -0.1180    9.5097 H         1 <0>         0.0993
     47 H18         6.2358    2.2552    7.8864 H         1 <0>         0.1355
     48 H19         7.6721    1.2402    7.5517 H         1 <0>         0.1377
     49 H20         6.3896   -0.3873    6.7152 H         1 <0>         0.4265
     50 H21         6.0804   -2.0810    8.3489 H         1 <0>         0.1053
     51 H22         4.3604   -2.3162    8.7440 H         1 <0>         0.1177
     52 H23         4.8406   -3.4677    6.6497 H         1 <0>         0.1210
     53 H24         5.5653   -1.9904    5.9641 H         1 <0>         0.0668
     54 H25         1.1421    0.2755   -2.8223 H         1 <0>         0.0806
     55 H26        -0.3807   -0.5301   -3.2697 H         1 <0>         0.0810
     56 H27        -0.4173    1.0283   -2.4105 H         1 <0>         0.0802
     57 H28         5.3025    0.8219    6.4392 H         1 <0>         0.4259
@<TRIPOS>BOND
     1    1    2 1
     2    1   31 1
     3    1   32 1
     4    1   33 1
     5    2    9 1
     6    2    3 2
     7    3    4 1
     8    3   30 1
     9    4    5 2
    10    4    6 am
    11    6    7 1
    12    6    8 1
    13    8    9 2
    14    9   10 1
    15   10   11 1
    16   10   34 1
    17   10   35 1
    18   11   16 ar
    19   11   12 ar
    20   12   13 ar
    21   12   36 1
    22   13   14 ar
    23   13   37 1
    24   14   15 ar
    25   14   29 1
    26   15   16 ar
    27   15   17 1
    28   16   38 1
    29   17   18 2
    30   17   19 am
    31   19   28 1
    32   19   20 1
    33   20   21 1
    34   20   39 1
    35   20   40 1
    36   21   22 1
    37   21   41 1
    38   21   42 1
    39   22   26 1
    40   22   23 1
    41   22   27 1
    42   23   24 1
    43   23   43 1
    44   23   44 1
    45   24   25 1
    46   24   45 1
    47   24   46 1
    48   25   26 1
    49   25   47 1
    50   25   48 1
    51   26   49 1
    52   26   57 1
    53   27   28 1
    54   27   50 1
    55   27   51 1
    56   28   52 1
    57   28   53 1
    58   30   54 1
    59   30   55 1
    60   30   56 1
@<TRIPOS>MOLECULE
CHEMBL598145__1
   56    59     0     0     0
SMALL
USER_CHARGES

@<TRIPOS>ATOM
      1 C1         -3.5925   -2.4741    0.0701 C.3       1 <0>        -0.1072
      2 C2         -3.6763   -1.1317   -0.6096 C.ar      1 <0>        -0.0688
      3 C3         -4.5827   -0.9056   -1.6345 C.ar      1 <0>        -0.1985
      4 C4         -4.6056    0.3584   -2.2176 C.ar      1 <0>         0.3660
      5 O1         -5.4750    0.6290   -3.2237 O.3       1 <0>        -0.6906
      6 N1         -3.7761    1.2954   -1.7861 N.ar      1 <0>        -0.3567
      7 N2         -2.9391    1.0807   -0.8371 N.ar      1 <0>        -0.1999
      8 C5         -2.8529   -0.0837   -0.2248 C.ar      1 <0>        -0.0772
      9 C6         -1.8557   -0.2781    0.8883 C.3       1 <0>        -0.0020
     10 C7         -2.5288   -0.0331    2.2142 C.ar      1 <0>        -0.0675
     11 C8         -2.6433    1.2577    2.7019 C.ar      1 <0>        -0.0471
     12 C9         -3.2588    1.4930    3.9167 C.ar      1 <0>        -0.1505
     13 C10        -3.7656    0.4380    4.6538 C.ar      1 <0>         0.1348
     14 C11        -3.6532   -0.8675    4.1658 C.ar      1 <0>        -0.1807
     15 C12        -3.0337   -1.0943    2.9348 C.ar      1 <0>        -0.0684
     16 C13        -4.1910   -2.0004    4.9460 C.2       1 <0>         0.5784
     17 O2         -5.3478   -1.9865    5.3195 O.2       1 <0>        -0.5019
     18 N3         -3.3992   -3.0496    5.2439 N.am      1 <0>        -0.6199
     19 C14        -1.9668   -3.0223    4.9180 C.3       1 <0>         0.0867
     20 C15        -1.1663   -3.3239    6.1893 C.3       1 <0>        -0.1495
     21 C16        -1.6556   -4.6381    6.7961 C.3       1 <0>         0.0585
     22 C17        -0.8330   -4.9607    8.0590 C.3       1 <0>        -0.1304
     23 C18        -0.6567   -6.5002    7.9756 C.3       1 <0>        -0.1434
     24 C19        -0.5201   -6.7177    6.4478 C.3       1 <0>        -0.0079
     25 N4         -1.4509   -5.7407    5.8423 N.4       1 <0>        -0.5134
     26 C20        -3.1351   -4.5327    7.1635 C.3       1 <0>        -0.1478
     27 C21        -3.9513   -4.2393    5.9060 C.3       1 <0>         0.0964
     28 F1         -4.3669    0.6681    5.8415 F         1 <0>        -0.1302
     29 C22        -5.5135   -1.9944   -2.1028 C.3       1 <0>        -0.0813
     30 H1         -4.2112   -2.4662    0.9675 H         1 <0>         0.0600
     31 H2         -3.9483   -3.2483   -0.6096 H         1 <0>         0.0654
     32 H3         -2.5576   -2.6787    0.3441 H         1 <0>         0.0592
     33 H4         -1.4722   -1.2979    0.8585 H         1 <0>         0.0752
     34 H5         -1.0312    0.4240    0.7642 H         1 <0>         0.0874
     35 H6         -2.2492    2.0849    2.1302 H         1 <0>         0.1474
     36 H7         -3.3439    2.5024    4.2913 H         1 <0>         0.1448
     37 H8         -2.9466   -2.0997    2.5501 H         1 <0>         0.1346
     38 H9         -1.7496   -3.7767    4.1618 H         1 <0>         0.0692
     39 H10        -1.6964   -2.0359    4.5413 H         1 <0>         0.1215
     40 H11        -0.1084   -3.4095    5.9412 H         1 <0>         0.1052
     41 H12        -1.3074   -2.5166    6.9080 H         1 <0>         0.1179
     42 H13         0.1344   -4.4595    8.0275 H         1 <0>         0.1035
     43 H14        -1.3829   -4.6837    8.9585 H         1 <0>         0.1135
     44 H15         0.2458   -6.8186    8.4975 H         1 <0>         0.1172
     45 H16        -1.5341   -7.0154    8.3664 H         1 <0>         0.0983
     46 H17         0.5020   -6.5180    6.1259 H         1 <0>         0.1349
     47 H18        -0.8108   -7.7340    6.1817 H         1 <0>         0.1366
     48 H19        -2.3335   -6.1886    5.6462 H         1 <0>         0.4266
     49 H20        -3.4683   -5.4725    7.6039 H         1 <0>         0.1028
     50 H21        -3.2750   -3.7245    7.8813 H         1 <0>         0.1166
     51 H22        -4.9900   -4.0557    6.1809 H         1 <0>         0.1200
     52 H23        -3.8953   -5.0927    5.2302 H         1 <0>         0.0655
     53 H24        -6.4391   -1.9530   -1.5286 H         1 <0>         0.0527
     54 H25        -5.7355   -1.8525   -3.1605 H         1 <0>         0.0679
     55 H26        -5.0392   -2.9650   -1.9581 H         1 <0>         0.0479
     56 H27        -1.0561   -5.3806    4.9864 H         1 <0>         0.4278
@<TRIPOS>BOND
     1    1    2 1
     2    1   30 1
     3    1   31 1
     4    1   32 1
     5    2    8 ar
     6    2    3 ar
     7    3    4 ar
     8    3   29 1
     9    4    5 1
    10    4    6 ar
    11    6    7 ar
    12    7    8 ar
    13    8    9 1
    14    9   10 1
    15    9   33 1
    16    9   34 1
    17   10   15 ar
    18   10   11 ar
    19   11   12 ar
    20   11   35 1
    21   12   13 ar
    22   12   36 1
    23   13   14 ar
    24   13   28 1
    25   14   15 ar
    26   14   16 1
    27   15   37 1
    28   16   17 2
    29   16   18 am
    30   18   27 1
    31   18   19 1
    32   19   20 1
    33   19   38 1
    34   19   39 1
    35   20   21 1
    36   20   40 1
    37   20   41 1
    38   21   25 1
    39   21   22 1
    40   21   26 1
    41   22   23 1
    42   22   42 1
    43   22   43 1
    44   23   24 1
    45   23   44 1
    46   23   45 1
    47   24   25 1
    48   24   46 1
    49   24   47 1
    50   25   48 1
    51   25   56 1
    52   26   27 1
    53   26   49 1
    54   26   50 1
    55   27   51 1
    56   27   52 1
    57   29   53 1
    58   29   54 1
    59   29   55 1
@<TRIPOS>MOLECULE
CHEMBL338955
   49    52     0     0     0
SMALL
USER_CHARGES

@<TRIPOS>ATOM
      1 C1         -0.0173    1.4248    0.0099 C.3       1 <0>         0.0226
      2 O1          0.0021   -0.0041    0.0020 O.3       1 <0>        -0.3112
      3 C2          0.6253   -0.6178    1.0406 C.ar      1 <0>         0.1569
      4 C3          1.2016    0.1431    2.0502 C.ar      1 <0>        -0.2094
      5 C4          1.8344   -0.4757    3.1059 C.ar      1 <0>        -0.0120
      6 C5          1.8962   -1.8703    3.1604 C.ar      1 <0>        -0.0879
      7 C6          1.3155   -2.6317    2.1432 C.ar      1 <0>        -0.0645
      8 C7          0.6799   -2.0052    1.0937 C.ar      1 <0>        -0.1477
      9 C8          2.5739   -2.5377    4.2897 C.2       1 <0>         0.3730
     10 N1          3.3779   -1.9500    5.1431 N.2       1 <0>        -0.4373
     11 C9          3.8227   -2.8440    6.0459 C.ar      1 <0>         0.1204
     12 C10         4.6900   -2.7479    7.1558 C.ar      1 <0>        -0.0886
     13 C11         4.9606   -3.8850    7.9141 C.ar      1 <0>        -0.0779
     14 C12         4.3857   -5.0974    7.5838 C.ar      1 <0>        -0.1043
     15 C13         3.5350   -5.2014    6.4987 C.ar      1 <0>        -0.0746
     16 C14         3.2489   -4.0865    5.7279 C.ar      1 <0>         0.0536
     17 N2          2.4539   -3.8692    4.6112 N.am      1 <0>        -0.4860
     18 C15         1.7093   -4.7877    3.9644 C.2       1 <0>         0.6811
     19 O2          2.1913   -5.4259    3.0504 O.2       1 <0>        -0.4702
     20 O3          0.4316   -4.9977    4.3312 O.3       1 <0>        -0.3327
     21 C16        -0.2987   -5.9861    3.6021 C.3       1 <0>         0.1150
     22 C17        -1.6993   -6.0816    4.1498 C.ar      1 <0>        -0.1067
     23 C18        -1.9802   -6.9594    5.1801 C.ar      1 <0>        -0.0909
     24 C19        -3.2650   -7.0470    5.6826 C.ar      1 <0>        -0.1226
     25 C20        -4.2689   -6.2565    5.1551 C.ar      1 <0>        -0.1022
     26 C21        -3.9878   -5.3780    4.1254 C.ar      1 <0>        -0.1219
     27 C22        -2.7021   -5.2873    3.6259 C.ar      1 <0>        -0.0895
     28 C23         5.3043   -1.4559    7.5090 C.2       1 <0>         0.5594
     29 O4          5.0649   -0.4666    6.8434 O.2       1 <0>        -0.5091
     30 N3          6.1314   -1.3705    8.5697 N.am      1 <0>        -0.8534
     31 H1          1.0053    1.8021    0.0021 H         1 <0>         0.0608
     32 H2         -0.5445    1.7859   -0.8732 H         1 <0>         0.1046
     33 H3         -0.5275    1.7763    0.9067 H         1 <0>         0.0603
     34 H4          1.1537    1.2212    2.0072 H         1 <0>         0.1417
     35 H5          2.2824    0.1165    3.8901 H         1 <0>         0.1487
     36 H6          1.3611   -3.7101    2.1816 H         1 <0>         0.1263
     37 H7          0.2272   -2.5931    0.3090 H         1 <0>         0.1411
     38 H8          5.6235   -3.8186    8.7642 H         1 <0>         0.1412
     39 H9          4.6031   -5.9721    8.1787 H         1 <0>         0.1460
     40 H10         3.0925   -6.1550    6.2512 H         1 <0>         0.1302
     41 H11        -0.3385   -5.7055    2.5495 H         1 <0>         0.0881
     42 H12         0.1972   -6.9516    3.7022 H         1 <0>         0.0881
     43 H13        -1.1959   -7.5770    5.5923 H         1 <0>         0.1253
     44 H14        -3.4846   -7.7333    6.4871 H         1 <0>         0.1282
     45 H15        -5.2728   -6.3254    5.5472 H         1 <0>         0.1273
     46 H16        -4.7722   -4.7606    3.7131 H         1 <0>         0.1285
     47 H17        -2.4817   -4.5983    2.8239 H         1 <0>         0.1265
     48 H18         6.3223   -2.1595    9.1006 H         1 <0>         0.3990
     49 H19         6.5357   -0.5200    8.8022 H         1 <0>         0.4068
@<TRIPOS>BOND
     1    1    2 1
     2    1   31 1
     3    1   32 1
     4    1   33 1
     5    2    3 1
     6    3    8 ar
     7    3    4 ar
     8    4    5 ar
     9    4   34 1
    10    5    6 ar
    11    5   35 1
    12    6    7 ar
    13    6    9 1
    14    7    8 ar
    15    7   36 1
    16    8   37 1
    17    9   17 1
    18    9   10 2
    19   10   11 1
    20   11   16 ar
    21   11   12 ar
    22   12   13 ar
    23   12   28 1
    24   13   14 ar
    25   13   38 1
    26   14   15 ar
    27   14   39 1
    28   15   16 ar
    29   15   40 1
    30   16   17 1
    31   17   18 am
    32   18   19 2
    33   18   20 1
    34   20   21 1
    35   21   22 1
    36   21   41 1
    37   21   42 1
    38   22   27 ar
    39   22   23 ar
    40   23   24 ar
    41   23   43 1
    42   24   25 ar
    43   24   44 1
    44   25   26 ar
    45   25   45 1
    46   26   27 ar
    47   26   46 1
    48   27   47 1
    49   28   29 2
    50   28   30 am
    51   30   48 1
    52   30   49 1
@<TRIPOS>MOLECULE
CHEMBL606029
   56    60     0     0     0
SMALL
USER_CHARGES

@<TRIPOS>ATOM
      1 C1         -0.0563    1.5440    0.0561 C.ar      1 <0>        -0.0490
      2 C2          0.8237    1.6628   -1.0034 C.ar      1 <0>        -0.1446
      3 C3          2.0030    0.9407   -1.0103 C.ar      1 <0>         0.1569
      4 C4          2.3026    0.0896    0.0583 C.ar      1 <0>        -0.1713
      5 C5          1.4073   -0.0234    1.1238 C.ar      1 <0>        -0.0639
      6 C6          0.2353    0.7032    1.1163 C.ar      1 <0>        -0.1029
      7 C7         -0.7309    0.5818    2.2663 C.3       1 <0>        -0.0332
      8 C8         -1.6371   -0.6006    2.0384 C.2       1 <0>         0.0231
      9 C9         -1.4272   -1.3904    0.9957 C.2       1 <0>         0.0720
     10 N1         -2.2278   -2.4909    0.7368 N.am      1 <0>        -0.6469
     11 H1         -2.0463   -3.0490   -0.0355 H         1 <0>         0.4224
     12 C10        -3.2597   -2.7904    1.5553 C.2       1 <0>         0.5829
     13 O1         -3.9684   -3.7565    1.3352 O.2       1 <0>        -0.4945
     14 C11        -3.5076   -1.9300    2.7121 C.2       1 <0>        -0.0445
     15 N2         -2.6763   -0.8473    2.9295 N.pl3     1 <0>        -0.3481
     16 C12        -3.0922   -0.2096    4.0513 C.2       1 <0>         0.0971
     17 C13        -4.1689   -0.8657    4.5584 C.2       1 <0>        -0.0853
     18 C14        -4.4474   -1.9484    3.7194 C.2       1 <0>        -0.0683
     19 Cl1        -5.0512   -0.4282    5.9880 Cl        1 <0>        -0.0045
     20 Cl2        -2.3665    1.2137    4.7304 Cl        1 <0>         0.0184
     21 C15         3.5594   -0.6861    0.0596 C.2       1 <0>         0.5722
     22 O2          4.6255   -0.1162   -0.0700 O.2       1 <0>        -0.4931
     23 N3          3.5245   -2.0256    0.2044 N.am      1 <0>        -0.6164
     24 C16         2.2521   -2.7190    0.4468 C.3       1 <0>         0.0819
     25 C17         2.0828   -3.8204   -0.6049 C.3       1 <0>        -0.1527
     26 C18         3.3133   -4.7262   -0.5923 C.3       1 <0>         0.0585
     27 C19         3.1345   -5.8533   -1.6283 C.3       1 <0>        -0.1309
     28 C20         3.7543   -7.0839   -0.9143 C.3       1 <0>        -0.1436
     29 C21         3.3539   -6.8255    0.5598 C.3       1 <0>        -0.0088
     30 N4          3.4591   -5.3598    0.7286 N.4       1 <0>        -0.5138
     31 C22         4.5674   -3.9197   -0.9265 C.3       1 <0>        -0.1493
     32 C23         4.7573   -2.8200    0.1167 C.3       1 <0>         0.0966
     33 F1          2.8626    1.0566   -2.0460 F         1 <0>        -0.1183
     34 H2         -0.9739    2.1136    0.0588 H         1 <0>         0.1485
     35 H3          0.5896    2.3205   -1.8274 H         1 <0>         0.1542
     36 H4          1.6321   -0.6790    1.9521 H         1 <0>         0.1415
     37 H5         -0.1760    0.4408    3.1938 H         1 <0>         0.1038
     38 H6         -1.3294    1.4902    2.3355 H         1 <0>         0.1066
     39 H7         -0.6079   -1.1697    0.3276 H         1 <0>         0.1763
     40 H8         -5.2419   -2.6694    3.8436 H         1 <0>         0.1754
     41 H9          2.2616   -3.1628    1.4424 H         1 <0>         0.0724
     42 H10         1.4284   -2.0094    0.3686 H         1 <0>         0.1140
     43 H11         1.1951   -4.4096   -0.3749 H         1 <0>         0.1060
     44 H12         1.9742   -3.3683   -1.5908 H         1 <0>         0.1201
     45 H13         2.0779   -6.0206   -1.8376 H         1 <0>         0.1042
     46 H14         3.6787   -5.6247   -2.5447 H         1 <0>         0.1154
     47 H15         3.3141   -8.0110   -1.2816 H         1 <0>         0.1198
     48 H16         4.8382   -7.0963   -1.0280 H         1 <0>         0.1000
     49 H17         2.3306   -7.1555    0.7386 H         1 <0>         0.1357
     50 H18         4.0413   -7.3354    1.2347 H         1 <0>         0.1387
     51 H19         4.3595   -5.1266    1.1198 H         1 <0>         0.4271
     52 H20         5.4353   -4.5791   -0.9238 H         1 <0>         0.1073
     53 H21         4.4570   -3.4673   -1.9120 H         1 <0>         0.1182
     54 H22         5.5862   -2.1770   -0.1792 H         1 <0>         0.1224
     55 H23         4.9704   -3.2721    1.0853 H         1 <0>         0.0686
     56 H24         2.7281   -5.0352    1.3437 H         1 <0>         0.4255
@<TRIPOS>BOND
     1    1    6 ar
     2    1    2 ar
     3    1   34 1
     4    2    3 ar
     5    2   35 1
     6    3    4 ar
     7    3   33 1
     8    4    5 ar
     9    4   21 1
    10    5    6 ar
    11    5   36 1
    12    6    7 1
    13    7    8 1
    14    7   37 1
    15    7   38 1
    16    8   15 1
    17    8    9 2
    18    9   10 1
    19    9   39 1
    20   10   11 1
    21   10   12 am
    22   12   13 2
    23   12   14 1
    24   14   18 2
    25   14   15 1
    26   15   16 1
    27   16   17 2
    28   16   20 1
    29   17   18 1
    30   17   19 1
    31   18   40 1
    32   21   22 2
    33   21   23 am
    34   23   32 1
    35   23   24 1
    36   24   25 1
    37   24   41 1
    38   24   42 1
    39   25   26 1
    40   25   43 1
    41   25   44 1
    42   26   30 1
    43   26   27 1
    44   26   31 1
    45   27   28 1
    46   27   45 1
    47   27   46 1
    48   28   29 1
    49   28   47 1
    50   28   48 1
    51   29   30 1
    52   29   49 1
    53   29   50 1
    54   30   51 1
    55   30   56 1
    56   31   32 1
    57   31   52 1
    58   31   53 1
    59   32   54 1
    60   32   55 1
@<TRIPOS>MOLECULE
CHEMBL364763
   50    54     0     0     0
SMALL
USER_CHARGES

@<TRIPOS>ATOM
      1 C1         -0.0164    1.3615    0.0095 C.ar      1 <0>        -0.1305
      2 C2          1.1695    2.0833    0.0021 C.ar      1 <0>        -0.0796
      3 C3          2.3848    1.4354   -0.0134 C.ar      1 <0>        -0.1278
      4 C4          2.4284    0.0453   -0.0210 C.ar      1 <0>         0.1101
      5 C5          1.2225   -0.6837   -0.0129 C.ar      1 <0>        -0.0977
      6 C6          0.0021   -0.0041    0.0020 C.ar      1 <0>        -0.0703
      7 C7          1.6092   -2.0877   -0.0230 C.2       1 <0>        -0.1615
      8 C8          2.9574   -2.1370   -0.0376 C.2       1 <0>         0.0216
      9 N1          3.4602   -0.8691   -0.0355 N.pl3     1 <0>        -0.5694
     10 H1          4.4037   -0.6441   -0.0431 H         1 <0>         0.4230
     11 C9          3.7294   -3.4357   -0.0570 C.3       1 <0>         0.0707
     12 N2          2.8214   -4.5135   -0.4790 N.4       1 <0>        -0.3785
     13 C10         1.6120   -4.5156    0.3548 C.3       1 <0>        -0.0058
     14 C11         0.7316   -3.3132   -0.0158 C.3       1 <0>        -0.0689
     15 C12         3.5061   -5.8064   -0.3461 C.3       1 <0>        -0.0130
     16 C13         4.6839   -5.8623   -1.3210 C.3       1 <0>        -0.1342
     17 C14         5.3971   -7.2089   -1.1826 C.3       1 <0>        -0.0713
     18 C15         6.5572   -7.2639   -2.1429 C.2       1 <0>         0.3871
     19 N3          6.7774   -6.2342   -2.9025 N.2       1 <0>        -0.5189
     20 C16         7.8029   -6.2117   -3.7902 C.ar      1 <0>         0.1441
     21 C17         8.0399   -5.1047   -4.6078 C.ar      1 <0>        -0.1095
     22 C18         9.0922   -5.1253   -5.4951 C.ar      1 <0>        -0.0696
     23 C19         9.9228   -6.2345   -5.5882 C.ar      1 <0>        -0.1280
     24 C20         9.7090   -7.3387   -4.7926 C.ar      1 <0>        -0.0396
     25 C21         8.6496   -7.3379   -3.8875 C.ar      1 <0>        -0.1940
     26 C22         8.3727   -8.4872   -3.0130 C.2       1 <0>         0.5500
     27 N4          7.3224   -8.3863   -2.1654 N.am      1 <0>        -0.6533
     28 O1          9.0639   -9.4886   -3.0469 O.2       1 <0>        -0.4955
     29 H2         -0.9614    1.8842    0.0259 H         1 <0>         0.1324
     30 H3          1.1388    3.1629    0.0081 H         1 <0>         0.1358
     31 H4          3.3020    2.0056   -0.0200 H         1 <0>         0.1282
     32 H5         -0.9253   -0.5576    0.0080 H         1 <0>         0.1273
     33 H6          4.5581   -3.3585   -0.7608 H         1 <0>         0.1443
     34 H7          4.1119   -3.6491    0.9412 H         1 <0>         0.1447
     35 H8          1.0565   -5.4382    0.1866 H         1 <0>         0.1398
     36 H9          1.8950   -4.4485    1.4053 H         1 <0>         0.1327
     37 H10        -0.0621   -3.1950    0.7220 H         1 <0>         0.1209
     38 H11         0.2985   -3.4634   -1.0047 H         1 <0>         0.1003
     39 H12         3.8730   -5.9200    0.6740 H         1 <0>         0.1344
     40 H13         2.8081   -6.6122   -0.5730 H         1 <0>         0.1392
     41 H14         4.3170   -5.7487   -2.3411 H         1 <0>         0.1024
     42 H15         5.3819   -5.0565   -1.0941 H         1 <0>         0.0990
     43 H16         5.7640   -7.3225   -0.1625 H         1 <0>         0.1100
     44 H17         4.6990   -8.0147   -1.4095 H         1 <0>         0.1109
     45 H18         7.4004   -4.2367   -4.5446 H         1 <0>         0.1381
     46 H19         9.2739   -4.2685   -6.1270 H         1 <0>         0.1387
     47 H20        10.7433   -6.2315   -6.2905 H         1 <0>         0.1394
     48 H21        10.3582   -8.1984   -4.8693 H         1 <0>         0.1421
     49 H22         7.1120   -9.1234   -1.5710 H         1 <0>         0.4204
     50 H23         2.5617   -4.3731   -1.4439 H         1 <0>         0.4292
@<TRIPOS>BOND
     1    1    6 ar
     2    1    2 ar
     3    1   29 1
     4    2    3 ar
     5    2   30 1
     6    3    4 ar
     7    3   31 1
     8    4    9 1
     9    4    5 ar
    10    5    6 ar
    11    5    7 1
    12    6   32 1
    13    7   14 1
    14    7    8 2
    15    8    9 1
    16    8   11 1
    17    9   10 1
    18   11   12 1
    19   11   33 1
    20   11   34 1
    21   12   13 1
    22   12   15 1
    23   12   50 1
    24   13   14 1
    25   13   35 1
    26   13   36 1
    27   14   37 1
    28   14   38 1
    29   15   16 1
    30   15   39 1
    31   15   40 1
    32   16   17 1
    33   16   41 1
    34   16   42 1
    35   17   43 1
    36   17   44 1
    37   17   18 1
    38   18   19 2
    39   18   27 1
    40   19   20 1
    41   20   25 ar
    42   20   21 ar
    43   21   22 ar
    44   21   45 1
    45   22   23 ar
    46   22   46 1
    47   23   24 ar
    48   23   47 1
    49   24   25 ar
    50   24   48 1
    51   25   26 1
    52   26   28 2
    53   26   27 am
    54   27   49 1
@<TRIPOS>MOLECULE
CHEMBL364763__1
   49    53     0     0     0
SMALL
USER_CHARGES

@<TRIPOS>ATOM
      1 C1         -0.0164    1.3616    0.0095 C.ar      1 <0>        -0.1457
      2 C2          1.1695    2.0833    0.0021 C.ar      1 <0>        -0.1000
      3 C3          2.3848    1.4354   -0.0134 C.ar      1 <0>        -0.1295
      4 C4          2.4283    0.0454   -0.0210 C.ar      1 <0>         0.0969
      5 C5          1.2225   -0.6835   -0.0130 C.ar      1 <0>        -0.0969
      6 C6          0.0021   -0.0041    0.0020 C.ar      1 <0>        -0.0714
      7 C7          1.6088   -2.0882   -0.0232 C.2       1 <0>        -0.1590
      8 C8          2.9566   -2.1372   -0.0371 C.2       1 <0>         0.0728
      9 N1          3.4598   -0.8692   -0.0353 N.pl3     1 <0>        -0.5857
     10 H1          4.4034   -0.6444   -0.0437 H         1 <0>         0.4136
     11 C9          3.7316   -3.4345   -0.0540 C.3       1 <0>         0.1213
     12 N2          2.8174   -4.5167   -0.4537 N.3       1 <0>        -0.5310
     13 C10         1.5949   -4.5176    0.3620 C.3       1 <0>         0.0552
     14 C11         0.7262   -3.3100   -0.0177 C.3       1 <0>        -0.0403
     15 C12         3.4895   -5.8216   -0.3965 C.3       1 <0>         0.0538
     16 C13         4.5963   -5.8720   -1.4516 C.3       1 <0>        -0.0994
     17 C14         5.2963   -7.2312   -1.3920 C.3       1 <0>        -0.0783
     18 C15         6.3865   -7.2807   -2.4312 C.2       1 <0>         0.3970
     19 N3          6.5698   -6.2373   -3.1818 N.2       1 <0>        -0.5120
     20 C16         7.5319   -6.2091   -4.1377 C.ar      1 <0>         0.1547
     21 C17         7.7292   -5.0873   -4.9457 C.ar      1 <0>        -0.1104
     22 C18         8.7174   -5.1026   -5.9039 C.ar      1 <0>        -0.0715
     23 C19         9.5224   -6.2209   -6.0782 C.ar      1 <0>        -0.1383
     24 C20         9.3468   -7.3397   -5.2938 C.ar      1 <0>        -0.0408
     25 C21         8.3524   -7.3446   -4.3177 C.ar      1 <0>        -0.2019
     26 C22         8.1186   -8.5094   -3.4512 C.2       1 <0>         0.5509
     27 N4          7.1308   -8.4129   -2.5309 N.am      1 <0>        -0.6539
     28 O1          8.7902   -9.5193   -3.5545 O.2       1 <0>        -0.5098
     29 H2         -0.9614    1.8843    0.0259 H         1 <0>         0.1222
     30 H3          1.1388    3.1629    0.0081 H         1 <0>         0.1249
     31 H4          3.3020    2.0056   -0.0200 H         1 <0>         0.1188
     32 H5         -0.9252   -0.5577    0.0073 H         1 <0>         0.1207
     33 H6          4.5510   -3.3632   -0.7694 H         1 <0>         0.0947
     34 H7          4.1286   -3.6379    0.9405 H         1 <0>         0.0531
     35 H8          1.0382   -5.4371    0.1813 H         1 <0>         0.0825
     36 H9          1.8620   -4.4557    1.4170 H         1 <0>         0.0390
     37 H10        -0.0720   -3.1851    0.7141 H         1 <0>         0.0752
     38 H11         0.2985   -3.4606   -1.0089 H         1 <0>         0.0789
     39 H12         3.9240   -5.9634    0.5930 H         1 <0>         0.0374
     40 H13         2.7650   -6.6123   -0.5919 H         1 <0>         0.0821
     41 H14         4.1618   -5.7302   -2.4411 H         1 <0>         0.0873
     42 H15         5.3208   -5.0813   -1.2562 H         1 <0>         0.0744
     43 H16         5.7309   -7.3729   -0.4024 H         1 <0>         0.0990
     44 H17         4.5719   -8.0218   -1.5873 H         1 <0>         0.1021
     45 H18         7.1092   -4.2120   -4.8196 H         1 <0>         0.1402
     46 H19         8.8684   -4.2343   -6.5282 H         1 <0>         0.1355
     47 H20        10.2924   -6.2135   -6.8354 H         1 <0>         0.1345
     48 H21         9.9757   -8.2064   -5.4338 H         1 <0>         0.1380
     49 H22         6.9504   -9.1602   -1.9394 H         1 <0>         0.4189
@<TRIPOS>BOND
     1    1    6 ar
     2    1    2 ar
     3    1   29 1
     4    2    3 ar
     5    2   30 1
     6    3    4 ar
     7    3   31 1
     8    4    9 1
     9    4    5 ar
    10    5    6 ar
    11    5    7 1
    12    6   32 1
    13    7   14 1
    14    7    8 2
    15    8    9 1
    16    8   11 1
    17    9   10 1
    18   11   12 1
    19   11   33 1
    20   11   34 1
    21   12   13 1
    22   12   15 1
    23   13   14 1
    24   13   35 1
    25   13   36 1
    26   14   37 1
    27   14   38 1
    28   15   16 1
    29   15   39 1
    30   15   40 1
    31   16   17 1
    32   16   41 1
    33   16   42 1
    34   17   43 1
    35   17   44 1
    36   17   18 1
    37   18   19 2
    38   18   27 1
    39   19   20 1
    40   20   25 ar
    41   20   21 ar
    42   21   22 ar
    43   21   45 1
    44   22   23 ar
    45   22   46 1
    46   23   24 ar
    47   23   47 1
    48   24   25 ar
    49   24   48 1
    50   25   26 1
    51   26   28 2
    52   26   27 am
    53   27   49 1
@<TRIPOS>MOLECULE
CHEMBL380809
   32    35     0     0     0
SMALL
USER_CHARGES

@<TRIPOS>ATOM
      1 C1         -0.0184    1.5028    0.0103 C.3       1 <0>        -0.1277
      2 C2          0.0021   -0.0041    0.0020 C.ar      1 <0>         0.0201
      3 C3          0.0056   -0.6843   -1.1999 C.ar      1 <0>        -0.0908
      4 C4          0.0239   -2.0753   -1.2264 C.ar      1 <0>         0.1733
      5 C5          0.0393   -2.7961   -0.0149 C.ar      1 <0>        -0.0349
      6 C6          0.0557   -4.2222   -0.3793 C.ar      1 <0>        -0.1117
      7 C7          0.0746   -5.4017    0.3637 C.ar      1 <0>        -0.0485
      8 C8          0.0867   -6.6180   -0.2837 C.ar      1 <0>        -0.1481
      9 C9          0.0802   -6.6718   -1.6693 C.ar      1 <0>        -0.0727
     10 C10         0.0616   -5.5136   -2.4163 C.ar      1 <0>        -0.1440
     11 C11         0.0492   -4.2752   -1.7819 C.ar      1 <0>         0.1443
     12 N1          0.0302   -2.9804   -2.2683 N.pl3     1 <0>        -0.6075
     13 H1          0.0220   -2.7423   -3.2086 H         1 <0>         0.4228
     14 C12         0.0364   -2.1101    1.1996 C.ar      1 <0>        -0.0872
     15 C13         0.0230   -0.7014    1.2035 C.ar      1 <0>        -0.1703
     16 C14         0.0310   -0.3015    2.6246 C.2       1 <0>         0.5840
     17 O1          0.0189    0.8399    3.0400 O.2       1 <0>        -0.4624
     18 N2          0.0533   -1.4126    3.3825 N.am      1 <0>        -0.6810
     19 C15         0.0485   -2.5189    2.6171 C.2       1 <0>         0.5795
     20 O2          0.0656   -3.6631    3.0248 O.2       1 <0>        -0.4586
     21 C16        -0.0109    0.0871   -2.4945 C.3       1 <0>        -0.1185
     22 H2          1.0042    1.8801    0.0026 H         1 <0>         0.0843
     23 H3         -0.5455    1.8639   -0.8728 H         1 <0>         0.0793
     24 H4         -0.5286    1.8543    0.9071 H         1 <0>         0.0842
     25 H5          0.0800   -5.3623    1.4430 H         1 <0>         0.1400
     26 H6          0.1016   -7.5328    0.2902 H         1 <0>         0.1314
     27 H7          0.0901   -7.6299   -2.1677 H         1 <0>         0.1331
     28 H8          0.0571   -5.5672   -3.4950 H         1 <0>         0.1280
     29 H9          0.0631   -1.4158    4.3524 H         1 <0>         0.4309
     30 H10         1.0127    0.2869   -2.8114 H         1 <0>         0.0798
     31 H11        -0.5204   -0.4984   -3.2598 H         1 <0>         0.0645
     32 H12        -0.5368    1.0306   -2.3486 H         1 <0>         0.0846
@<TRIPOS>BOND
     1    1    2 1
     2    1   22 1
     3    1   23 1
     4    1   24 1
     5    2   15 ar
     6    2    3 ar
     7    3    4 ar
     8    3   21 1
     9    4   12 1
    10    4    5 ar
    11    5    6 1
    12    5   14 ar
    13    6   11 ar
    14    6    7 ar
    15    7    8 ar
    16    7   25 1
    17    8    9 ar
    18    8   26 1
    19    9   10 ar
    20    9   27 1
    21   10   11 ar
    22   10   28 1
    23   11   12 1
    24   12   13 1
    25   14   19 1
    26   14   15 ar
    27   15   16 1
    28   16   17 2
    29   16   18 am
    30   18   19 am
    31   18   29 1
    32   19   20 2
    33   21   30 1
    34   21   31 1
    35   21   32 1
@<TRIPOS>MOLECULE
CHEMBL195464
   37    39     0     0     0
SMALL
USER_CHARGES

@<TRIPOS>ATOM
      1 C1          0.8674    1.3909   -0.1192 C.ar      1 <0>        -0.0873
      2 C2          2.1264    1.9668   -0.2320 C.ar      1 <0>        -0.1107
      3 C3          3.2540    1.1805   -0.3213 C.ar      1 <0>        -0.0546
      4 C4          3.1241   -0.2075   -0.2973 C.ar      1 <0>        -0.1257
      5 C5          1.8411   -0.7897   -0.1819 C.ar      1 <0>        -0.0600
      6 C6          0.7163    0.0327   -0.0937 C.ar      1 <0>        -0.0978
      7 C7          1.7347   -2.2486   -0.1598 C.2       1 <0>         0.1374
      8 N1          2.8057   -2.9800   -0.2448 N.2       1 <0>        -0.2186
      9 N2          4.0843   -2.4336   -0.3593 N.am      1 <0>        -0.5338
     10 C8          4.2863   -1.0997   -0.3890 C.2       1 <0>         0.5281
     11 O1          5.4117   -0.6446   -0.4901 O.2       1 <0>        -0.5208
     12 C9          0.3829   -2.9036   -0.0379 C.3       1 <0>        -0.0178
     13 C10         0.5486   -4.4015   -0.0388 C.ar      1 <0>        -0.0566
     14 C11         0.5278   -5.0981   -1.2334 C.ar      1 <0>        -0.1067
     15 C12         0.6799   -6.4723   -1.2385 C.ar      1 <0>        -0.0953
     16 C13         0.8532   -7.1539   -0.0496 C.ar      1 <0>        -0.1144
     17 C14         0.8745   -6.4574    1.1515 C.ar      1 <0>         0.1339
     18 C15         0.7267   -5.0764    1.1527 C.ar      1 <0>        -0.1172
     19 N3          1.0494   -7.1449    2.3576 N.am      1 <0>        -0.6447
     20 C16         1.8216   -8.2488    2.3982 C.2       1 <0>         0.4827
     21 O2          2.4411   -8.5920    1.4136 O.2       1 <0>        -0.4524
     22 C17         1.9152   -9.0566    3.6669 C.3       1 <0>         0.4556
     23 F1          2.7695  -10.1458    3.4643 F         1 <0>        -0.1480
     24 F2          2.4198   -8.2532    4.6951 F         1 <0>        -0.1646
     25 F3          0.6433   -9.5207    4.0192 F         1 <0>        -0.1633
     26 H1         -0.0037    2.0251   -0.0463 H         1 <0>         0.1368
     27 H2          2.2222    3.0424   -0.2502 H         1 <0>         0.1375
     28 H3          4.2298    1.6351   -0.4095 H         1 <0>         0.1435
     29 H4         -0.2684   -0.4022   -0.0060 H         1 <0>         0.1420
     30 H5         -0.0897   -2.5909    0.8931 H         1 <0>         0.1074
     31 H6         -0.2420   -2.6067   -0.8802 H         1 <0>         0.1094
     32 H7          0.3921   -4.5675   -2.1642 H         1 <0>         0.1259
     33 H8          0.6628   -7.0134   -2.1730 H         1 <0>         0.1305
     34 H9          0.9716   -8.2273   -0.0541 H         1 <0>         0.1335
     35 H10         0.7470   -4.5314    2.0849 H         1 <0>         0.1283
     36 H11         0.6149   -6.8270    3.1645 H         1 <0>         0.4208
     37 H12         4.8482   -3.0283   -0.4193 H         1 <0>         0.4368
@<TRIPOS>BOND
     1    1    6 ar
     2    1    2 ar
     3    1   26 1
     4    2    3 ar
     5    2   27 1
     6    3    4 ar
     7    3   28 1
     8    4   10 1
     9    4    5 ar
    10    5    6 ar
    11    5    7 1
    12    6   29 1
    13    7    8 2
    14    7   12 1
    15    8    9 1
    16    9   10 am
    17    9   37 1
    18   10   11 2
    19   12   13 1
    20   12   30 1
    21   12   31 1
    22   13   18 ar
    23   13   14 ar
    24   14   15 ar
    25   14   32 1
    26   15   16 ar
    27   15   33 1
    28   16   17 ar
    29   16   34 1
    30   17   18 ar
    31   17   19 1
    32   18   35 1
    33   19   20 am
    34   19   36 1
    35   20   21 2
    36   20   22 1
    37   22   23 1
    38   22   24 1
    39   22   25 1
@<TRIPOS>MOLECULE
CHEMBL590548
   74    78     0     0     0
SMALL
USER_CHARGES

@<TRIPOS>ATOM
      1 C1         -1.0092   -3.2215   -1.2456 C.3       1 <0>        -0.1254
      2 C2         -1.2578   -4.2063   -0.1323 C.2       1 <0>        -0.0461
      3 C3         -1.7941   -5.4356   -0.3915 C.2       1 <0>        -0.1520
      4 C4         -1.9999   -6.3076    0.6994 C.2       1 <0>         0.4822
      5 O1         -2.4759   -7.4172    0.5207 O.2       1 <0>        -0.5239
      6 N1         -1.6651   -5.9024    1.9394 N.am      1 <0>        -0.4492
      7 H1         -1.8074   -6.5031    2.6876 H         1 <0>         0.4406
      8 N2         -1.1620   -4.7412    2.1560 N.2       1 <0>        -0.2134
      9 C5         -0.9387   -3.8855    1.1976 C.2       1 <0>         0.0664
     10 C6         -0.3394   -2.5409    1.5197 C.3       1 <0>        -0.0124
     11 C7         -0.0909   -2.4439    3.0029 C.ar      1 <0>        -0.0823
     12 C8         -1.0799   -1.9514    3.8374 C.ar      1 <0>        -0.0463
     13 C9         -0.8620   -1.8585    5.1990 C.ar      1 <0>        -0.1494
     14 C10         0.3479   -2.2583    5.7372 C.ar      1 <0>         0.1501
     15 C11         1.3499   -2.7569    4.8990 C.ar      1 <0>        -0.1737
     16 C12         1.1182   -2.8513    3.5250 C.ar      1 <0>        -0.0507
     17 C13         2.6451   -3.1858    5.4645 C.2       1 <0>         0.5743
     18 O2          2.6733   -3.9739    6.3897 O.2       1 <0>        -0.5045
     19 N3          3.7958   -2.7036    4.9547 N.am      1 <0>        -0.6127
     20 C14         3.7761   -1.6631    3.9170 C.3       1 <0>         0.0868
     21 C15         4.6186   -0.4753    4.3979 C.3       1 <0>         0.0964
     22 N4          5.9155   -0.9801    4.8703 N.am      1 <0>        -0.6124
     23 C16         5.9352   -2.0205    5.9080 C.3       1 <0>         0.0620
     24 C17         5.0927   -3.2044    5.4310 C.3       1 <0>         0.0910
     25 C18         7.0662   -0.4978    4.3605 C.2       1 <0>         0.5167
     26 O3          7.0425    0.4366    3.5877 O.2       1 <0>        -0.4655
     27 C19         8.3823   -1.1196    4.7508 C.3       1 <0>         0.0374
     28 C20         9.5044   -0.6555    3.7890 C.3       1 <0>        -0.1197
     29 C21         9.3005   -1.6123    2.5848 C.3       1 <0>        -0.1418
     30 C22         8.8689   -2.9319    3.2585 C.3       1 <0>        -0.0156
     31 N5          8.3269   -2.5878    4.5858 N.4       1 <0>        -0.5197
     32 C23         8.7330   -0.7589    6.1957 C.3       1 <0>        -0.0886
     33 C24         8.7391    0.7400    6.3519 C.ar      1 <0>        -0.1247
     34 C25         9.8731    1.4631    6.0321 C.ar      1 <0>        -0.0712
     35 C26         9.8797    2.8377    6.1745 C.ar      1 <0>        -0.1484
     36 C27         8.7500    3.4907    6.6377 C.ar      1 <0>         0.1246
     37 C28         7.6149    2.7653    6.9577 C.ar      1 <0>        -0.1469
     38 C29         7.6088    1.3913    6.8095 C.ar      1 <0>        -0.0716
     39 F1          8.7555    4.8344    6.7777 F         1 <0>        -0.1280
     40 F2          0.5609   -2.1670    7.0681 F         1 <0>        -0.1240
     41 C30        -2.1545   -5.8472   -1.7956 C.3       1 <0>        -0.1025
     42 H2         -0.0068   -3.3720   -1.6466 H         1 <0>         0.0872
     43 H3         -1.7436   -3.3742   -2.0364 H         1 <0>         0.0844
     44 H4         -1.0972   -2.2062   -0.8590 H         1 <0>         0.0808
     45 H5          0.6035   -2.4259    0.9851 H         1 <0>         0.1023
     46 H6         -1.0285   -1.7534    1.2145 H         1 <0>         0.1072
     47 H7         -2.0263   -1.6379    3.4222 H         1 <0>         0.1409
     48 H8         -1.6376   -1.4726    5.8439 H         1 <0>         0.1473
     49 H9          1.8863   -3.2389    2.8722 H         1 <0>         0.1341
     50 H10         4.1969   -2.0599    2.9931 H         1 <0>         0.0820
     51 H11         2.7501   -1.3379    3.7445 H         1 <0>         0.1162
     52 H12         4.7751    0.2200    3.5732 H         1 <0>         0.1184
     53 H13         4.1041    0.0315    5.2143 H         1 <0>         0.0902
     54 H14         6.9612   -2.3458    6.0805 H         1 <0>         0.0766
     55 H15         5.5144   -1.6238    6.8319 H         1 <0>         0.1129
     56 H16         4.9361   -3.8968    6.2582 H         1 <0>         0.1256
     57 H17         5.6095   -3.7134    4.6174 H         1 <0>         0.0672
     58 H18         9.3589    0.3830    3.4915 H         1 <0>         0.1339
     59 H19        10.4872   -0.7973    4.2383 H         1 <0>         0.1123
     60 H20         8.5154   -1.2410    1.9262 H         1 <0>         0.1027
     61 H21        10.2332   -1.7463    2.0369 H         1 <0>         0.1220
     62 H22         8.1004   -3.4200    2.6592 H         1 <0>         0.1350
     63 H23         9.7302   -3.5907    3.3691 H         1 <0>         0.1437
     64 H24         8.8800   -3.0313    5.3038 H         1 <0>         0.4345
     65 H25         7.9922   -1.1913    6.8682 H         1 <0>         0.1027
     66 H26         9.7193   -1.1536    6.4396 H         1 <0>         0.1172
     67 H27        10.7543    0.9536    5.6711 H         1 <0>         0.1367
     68 H28        10.7659    3.4024    5.9249 H         1 <0>         0.1450
     69 H29         6.7332    3.2735    7.3194 H         1 <0>         0.1425
     70 H30         6.7220    0.8258    7.0548 H         1 <0>         0.1283
     71 H31        -1.2972   -6.3310   -2.2638 H         1 <0>         0.0802
     72 H32        -2.9931   -6.5430   -1.7664 H         1 <0>         0.0806
     73 H33        -2.4338   -4.9655   -2.3723 H         1 <0>         0.0801
     74 H34         7.3702   -2.9013    4.6536 H         1 <0>         0.4231
@<TRIPOS>BOND
     1    1    2 1
     2    1   42 1
     3    1   43 1
     4    1   44 1
     5    2    9 1
     6    2    3 2
     7    3    4 1
     8    3   41 1
     9    4    5 2
    10    4    6 am
    11    6    7 1
    12    6    8 1
    13    8    9 2
    14    9   10 1
    15   10   11 1
    16   10   45 1
    17   10   46 1
    18   11   16 ar
    19   11   12 ar
    20   12   13 ar
    21   12   47 1
    22   13   14 ar
    23   13   48 1
    24   14   15 ar
    25   14   40 1
    26   15   16 ar
    27   15   17 1
    28   16   49 1
    29   17   18 2
    30   17   19 am
    31   19   24 1
    32   19   20 1
    33   20   21 1
    34   20   50 1
    35   20   51 1
    36   21   22 1
    37   21   52 1
    38   21   53 1
    39   22   23 1
    40   22   25 am
    41   23   24 1
    42   23   54 1
    43   23   55 1
    44   24   56 1
    45   24   57 1
    46   25   26 2
    47   25   27 1
    48   27   31 1
    49   27   28 1
    50   27   32 1
    51   28   29 1
    52   28   58 1
    53   28   59 1
    54   29   30 1
    55   29   60 1
    56   29   61 1
    57   30   31 1
    58   30   62 1
    59   30   63 1
    60   31   64 1
    61   31   74 1
    62   32   33 1
    63   32   65 1
    64   32   66 1
    65   33   38 ar
    66   33   34 ar
    67   34   35 ar
    68   34   67 1
    69   35   36 ar
    70   35   68 1
    71   36   37 ar
    72   36   39 1
    73   37   38 ar
    74   37   69 1
    75   38   70 1
    76   41   71 1
    77   41   72 1
    78   41   73 1
@<TRIPOS>MOLECULE
CHEMBL590548__1
   73    77     0     0     0
SMALL
USER_CHARGES

@<TRIPOS>ATOM
      1 C1         -2.7047   -3.3707   -0.5198 C.3       1 <0>        -0.1076
      2 C2         -2.7936   -2.1059   -1.3344 C.ar      1 <0>        -0.0676
      3 C3         -3.5376   -2.0607   -2.5038 C.ar      1 <0>        -0.1998
      4 C4         -3.5756   -0.8592   -3.2063 C.ar      1 <0>         0.3660
      5 O1         -4.2901   -0.7645   -4.3560 O.3       1 <0>        -0.6924
      6 N1         -2.9123    0.1904   -2.7477 N.ar      1 <0>        -0.3573
      7 N2         -2.2252    0.1430   -1.6646 N.ar      1 <0>        -0.2001
      8 C5         -2.1384   -0.9508   -0.9336 C.ar      1 <0>        -0.0750
      9 C6         -1.3224   -0.9479    0.3333 C.3       1 <0>        -0.0033
     10 C7         -2.2200   -0.6571    1.5083 C.ar      1 <0>        -0.0673
     11 C8         -2.5233    0.6532    1.8373 C.ar      1 <0>        -0.0467
     12 C9         -3.3455    0.9305    2.9130 C.ar      1 <0>        -0.1512
     13 C10        -3.8718   -0.1017    3.6685 C.ar      1 <0>         0.1352
     14 C11        -3.5692   -1.4268    3.3404 C.ar      1 <0>        -0.1799
     15 C12        -2.7411   -1.6967    2.2486 C.ar      1 <0>        -0.0664
     16 C13        -4.1261   -2.5355    4.1416 C.2       1 <0>         0.5791
     17 O2         -5.3240   -2.6014    4.3382 O.2       1 <0>        -0.5083
     18 N3         -3.3063   -3.4742    4.6547 N.am      1 <0>        -0.6137
     19 C14        -1.8480   -3.3438    4.5279 C.3       1 <0>         0.0862
     20 C15        -1.2259   -3.4172    5.9279 C.3       1 <0>         0.0967
     21 N4         -1.7743   -4.5893    6.6246 N.am      1 <0>        -0.6087
     22 C16        -3.2327   -4.7197    6.7513 C.3       1 <0>         0.0624
     23 C17        -3.8546   -4.6434    5.3562 C.3       1 <0>         0.0922
     24 C18        -0.9545   -5.5279    7.1377 C.2       1 <0>         0.5146
     25 O3          0.2460   -5.3557    7.1276 O.2       1 <0>        -0.4695
     26 C19        -1.5296   -6.7915    7.7240 C.3       1 <0>         0.0371
     27 C20        -0.4041   -7.8205    7.9964 C.3       1 <0>        -0.1186
     28 C21        -0.2072   -8.4486    6.5916 C.3       1 <0>        -0.1418
     29 C22        -1.6392   -8.4715    6.0171 C.3       1 <0>        -0.0148
     30 N5         -2.4187   -7.4544    6.7464 N.4       1 <0>        -0.5169
     31 C23        -2.2931   -6.4801    9.0128 C.3       1 <0>        -0.0918
     32 C24        -1.3841   -5.7570    9.9730 C.ar      1 <0>        -0.1229
     33 C25        -0.5386   -6.4755   10.7977 C.ar      1 <0>        -0.0719
     34 C26         0.2958   -5.8135   11.6783 C.ar      1 <0>        -0.1494
     35 C27         0.2847   -4.4300   11.7343 C.ar      1 <0>         0.1229
     36 C28        -0.5625   -3.7115   10.9079 C.ar      1 <0>        -0.1464
     37 C29        -1.3922   -4.3755   10.0243 C.ar      1 <0>        -0.0710
     38 F1          1.0996   -3.7818   12.5951 F         1 <0>        -0.1292
     39 F2         -4.6752    0.1696    4.7203 F         1 <0>        -0.1308
     40 C30        -4.2812   -3.2742   -2.9991 C.3       1 <0>        -0.0806
     41 H1         -3.4600   -3.3507    0.2658 H         1 <0>         0.0600
     42 H2         -2.8752   -4.2318   -1.1660 H         1 <0>         0.0648
     43 H3         -1.7145   -3.4443   -0.0701 H         1 <0>         0.0605
     44 H4         -0.8544   -1.9233    0.4663 H         1 <0>         0.0764
     45 H5         -0.5509   -0.1808    0.2669 H         1 <0>         0.0877
     46 H6         -2.1149    1.4627    1.2506 H         1 <0>         0.1471
     47 H7         -3.5772    1.9550    3.1643 H         1 <0>         0.1443
     48 H8         -2.5062   -2.7180    1.9872 H         1 <0>         0.1355
     49 H9         -1.4602   -4.1554    3.9123 H         1 <0>         0.0820
     50 H10        -1.6049   -2.3852    4.0694 H         1 <0>         0.1192
     51 H11        -0.1437   -3.5156    5.8426 H         1 <0>         0.1175
     52 H12        -1.4708   -2.5128    6.4849 H         1 <0>         0.0901
     53 H13        -3.4758   -5.6782    7.2098 H         1 <0>         0.0769
     54 H14        -3.6204   -3.9081    7.3669 H         1 <0>         0.1103
     55 H15        -4.9363   -4.5430    5.4446 H         1 <0>         0.1239
     56 H16        -3.6130   -5.5497    4.8009 H         1 <0>         0.0656
     57 H17         0.5059   -7.3239    8.3331 H         1 <0>         0.1326
     58 H18        -0.7274   -8.5709    8.7178 H         1 <0>         0.1104
     59 H19         0.4441   -7.8255    5.9787 H         1 <0>         0.1043
     60 H20         0.1912   -9.4599    6.6740 H         1 <0>         0.1205
     61 H21        -1.6164   -8.2296    4.9545 H         1 <0>         0.1367
     62 H22        -2.0829   -9.4559    6.1661 H         1 <0>         0.1427
     63 H23        -3.1856   -7.8969    7.2304 H         1 <0>         0.4336
     64 H24        -3.1529   -5.8509    8.7827 H         1 <0>         0.1055
     65 H25        -2.6347   -7.4104    9.4666 H         1 <0>         0.1161
     66 H26        -0.5304   -7.5546   10.7540 H         1 <0>         0.1362
     67 H27         0.9559   -6.3750   12.3227 H         1 <0>         0.1439
     68 H28        -0.5722   -2.6324   10.9509 H         1 <0>         0.1428
     69 H29        -2.0499   -3.8151    9.3764 H         1 <0>         0.1298
     70 H30        -5.2879   -3.2792   -2.5811 H         1 <0>         0.0521
     71 H31        -4.3398   -3.2454   -4.0872 H         1 <0>         0.0675
     72 H32        -3.7539   -4.1758   -2.6874 H         1 <0>         0.0476
     73 H33        -2.7779   -6.7713    6.0964 H         1 <0>         0.4245
@<TRIPOS>BOND
     1    1    2 1
     2    1   41 1
     3    1   42 1
     4    1   43 1
     5    2    8 ar
     6    2    3 ar
     7    3    4 ar
     8    3   40 1
     9    4    5 1
    10    4    6 ar
    11    6    7 ar
    12    7    8 ar
    13    8    9 1
    14    9   10 1
    15    9   44 1
    16    9   45 1
    17   10   15 ar
    18   10   11 ar
    19   11   12 ar
    20   11   46 1
    21   12   13 ar
    22   12   47 1
    23   13   14 ar
    24   13   39 1
    25   14   15 ar
    26   14   16 1
    27   15   48 1
    28   16   17 2
    29   16   18 am
    30   18   23 1
    31   18   19 1
    32   19   20 1
    33   19   49 1
    34   19   50 1
    35   20   21 1
    36   20   51 1
    37   20   52 1
    38   21   22 1
    39   21   24 am
    40   22   23 1
    41   22   53 1
    42   22   54 1
    43   23   55 1
    44   23   56 1
    45   24   25 2
    46   24   26 1
    47   26   30 1
    48   26   27 1
    49   26   31 1
    50   27   28 1
    51   27   57 1
    52   27   58 1
    53   28   29 1
    54   28   59 1
    55   28   60 1
    56   29   30 1
    57   29   61 1
    58   29   62 1
    59   30   63 1
    60   30   73 1
    61   31   32 1
    62   31   64 1
    63   31   65 1
    64   32   37 ar
    65   32   33 ar
    66   33   34 ar
    67   33   66 1
    68   34   35 ar
    69   34   67 1
    70   35   36 ar
    71   35   38 1
    72   36   37 ar
    73   36   68 1
    74   37   69 1
    75   40   70 1
    76   40   71 1
    77   40   72 1
@<TRIPOS>MOLECULE
CHEMBL590548__2
   73    77     0     0     0
SMALL
USER_CHARGES

@<TRIPOS>ATOM
      1 C1         -1.4977   -3.5069   -0.4152 C.3       1 <0>        -0.1255
      2 C2         -1.7404   -4.2794    0.8558 C.2       1 <0>        -0.0418
      3 C3         -2.3760   -5.4882    0.8301 C.2       1 <0>        -0.1580
      4 C4         -2.5698   -6.1566    2.0582 C.2       1 <0>         0.4827
      5 O1         -3.1320   -7.2396    2.0890 O.2       1 <0>        -0.5302
      6 N1         -2.1274   -5.5870    3.1956 N.am      1 <0>        -0.4482
      7 H1         -2.2615   -6.0480    4.0384 H         1 <0>         0.4404
      8 N2         -1.5322   -4.4495    3.1922 N.2       1 <0>        -0.2099
      9 C5         -1.3135   -3.7773    2.0963 C.2       1 <0>         0.0683
     10 C6         -0.6029   -2.4500    2.1618 C.3       1 <0>        -0.0120
     11 C7         -0.2518   -2.1383    3.5938 C.ar      1 <0>        -0.0865
     12 C8         -1.1476   -1.4430    4.3883 C.ar      1 <0>        -0.0546
     13 C9         -0.8352   -1.1522    5.7027 C.ar      1 <0>        -0.1529
     14 C10         0.3768   -1.5554    6.2336 C.ar      1 <0>         0.1455
     15 C11         1.2850   -2.2582    5.4359 C.ar      1 <0>        -0.1607
     16 C12         0.9578   -2.5514    4.1101 C.ar      1 <0>        -0.0483
     17 C13         2.5817   -2.6925    5.9938 C.2       1 <0>         0.5638
     18 O2          2.6139   -3.3534    7.0137 O.2       1 <0>        -0.5197
     19 N3          3.7293   -2.3560    5.3723 N.am      1 <0>        -0.6055
     20 C14         3.7148   -1.4550    4.2114 C.3       1 <0>         0.0933
     21 C15         4.6529   -0.2752    4.4951 C.3       1 <0>         0.0933
     22 N4          5.9412   -0.8024    4.9665 N.am      1 <0>        -0.5879
     23 C16         5.9556   -1.7035    6.1274 C.3       1 <0>         0.0631
     24 C17         5.0181   -2.8788    5.8472 C.3       1 <0>         0.1038
     25 C18         7.0888   -0.4659    4.3450 C.2       1 <0>         0.5436
     26 O3          7.0785    0.3630    3.4597 O.2       1 <0>        -0.5436
     27 C19         8.3848   -1.1196    4.7502 C.3       1 <0>         0.0901
     28 C20         9.3506   -1.1972    3.5416 C.3       1 <0>        -0.1311
     29 C21         8.8321   -2.4615    2.8068 C.3       1 <0>        -0.1404
     30 C22         8.4017   -3.3851    3.9658 C.3       1 <0>         0.0417
     31 N5          8.1520   -2.5270    5.1385 N.3       1 <0>        -0.6653
     32 C23         9.0313   -0.3489    5.9030 C.3       1 <0>        -0.0779
     33 C24         8.1438   -0.4254    7.1185 C.ar      1 <0>        -0.0998
     34 C25         7.1686    0.5329    7.3231 C.ar      1 <0>        -0.0748
     35 C26         6.3539    0.4635    8.4372 C.ar      1 <0>        -0.1500
     36 C27         6.5146   -0.5663    9.3487 C.ar      1 <0>         0.1039
     37 C28         7.4916   -1.5255    9.1428 C.ar      1 <0>        -0.1481
     38 C29         8.3017   -1.4570    8.0252 C.ar      1 <0>        -0.0853
     39 F1          5.7190   -0.6348   10.4384 F         1 <0>        -0.1364
     40 F2          0.6823   -1.2706    7.5184 F         1 <0>        -0.1252
     41 C30        -2.8552   -6.0882   -0.4667 C.3       1 <0>        -0.0998
     42 H2         -0.5365   -3.7976   -0.8392 H         1 <0>         0.0884
     43 H3         -2.2911   -3.7250   -1.1301 H         1 <0>         0.0828
     44 H4         -1.4899   -2.4393   -0.1956 H         1 <0>         0.0814
     45 H5          0.3087   -2.4961    1.5660 H         1 <0>         0.1031
     46 H6         -1.2544   -1.6693    1.7693 H         1 <0>         0.1052
     47 H7         -2.0952   -1.1260    3.9785 H         1 <0>         0.1365
     48 H8         -1.5384   -0.6088    6.3164 H         1 <0>         0.1431
     49 H9          1.6530   -3.0972    3.4894 H         1 <0>         0.1341
     50 H10         4.0591   -1.9917    3.3274 H         1 <0>         0.0757
     51 H11         2.7024   -1.0860    4.0473 H         1 <0>         0.0979
     52 H12         4.8050    0.2991    3.5812 H         1 <0>         0.1039
     53 H13         4.2159    0.3633    5.2629 H         1 <0>         0.0704
     54 H14         6.9681   -2.0724    6.2915 H         1 <0>         0.1597
     55 H15         5.6114   -1.1667    7.0114 H         1 <0>         0.0625
     56 H16         4.8662   -3.4499    6.7631 H         1 <0>         0.0970
     57 H17         5.4573   -3.5192    5.0823 H         1 <0>         0.0748
     58 H18         9.2581   -0.3134    2.9104 H         1 <0>         0.0945
     59 H19        10.3802   -1.3328    3.8726 H         1 <0>         0.0806
     60 H20         7.9802   -2.2164    2.1726 H         1 <0>         0.0727
     61 H21         9.6290   -2.9218    2.2228 H         1 <0>         0.0784
     62 H22         7.4903   -3.9185    3.6959 H         1 <0>         0.0787
     63 H23         9.1976   -4.0956    4.1889 H         1 <0>         0.0621
     64 H24         8.7433   -2.7912    5.9123 H         1 <0>         0.3471
     65 H25        10.0022   -0.7873    6.1338 H         1 <0>         0.0917
     66 H26         9.1629    0.6939    5.6143 H         1 <0>         0.0931
     67 H27         7.0437    1.3362    6.6122 H         1 <0>         0.1278
     68 H28         5.5923    1.2125    8.5970 H         1 <0>         0.1344
     69 H29         7.6181   -2.3290    9.8532 H         1 <0>         0.1386
     70 H30         9.0610   -2.2076    7.8620 H         1 <0>         0.1334
     71 H31        -2.0659   -6.7062   -0.8946 H         1 <0>         0.0789
     72 H32        -3.7361   -6.7022   -0.2793 H         1 <0>         0.0787
     73 H33        -3.1101   -5.2901   -1.1640 H         1 <0>         0.0786
@<TRIPOS>BOND
     1    1    2 1
     2    1   42 1
     3    1   43 1
     4    1   44 1
     5    2    9 1
     6    2    3 2
     7    3    4 1
     8    3   41 1
     9    4    5 2
    10    4    6 am
    11    6    7 1
    12    6    8 1
    13    8    9 2
    14    9   10 1
    15   10   11 1
    16   10   45 1
    17   10   46 1
    18   11   16 ar
    19   11   12 ar
    20   12   13 ar
    21   12   47 1
    22   13   14 ar
    23   13   48 1
    24   14   15 ar
    25   14   40 1
    26   15   16 ar
    27   15   17 1
    28   16   49 1
    29   17   18 2
    30   17   19 am
    31   19   24 1
    32   19   20 1
    33   20   21 1
    34   20   50 1
    35   20   51 1
    36   21   22 1
    37   21   52 1
    38   21   53 1
    39   22   23 1
    40   22   25 am
    41   23   24 1
    42   23   54 1
    43   23   55 1
    44   24   56 1
    45   24   57 1
    46   25   26 2
    47   25   27 1
    48   27   31 1
    49   27   28 1
    50   27   32 1
    51   28   29 1
    52   28   58 1
    53   28   59 1
    54   29   30 1
    55   29   60 1
    56   29   61 1
    57   30   31 1
    58   30   62 1
    59   30   63 1
    60   31   64 1
    61   32   33 1
    62   32   65 1
    63   32   66 1
    64   33   38 ar
    65   33   34 ar
    66   34   35 ar
    67   34   67 1
    68   35   36 ar
    69   35   68 1
    70   36   37 ar
    71   36   39 1
    72   37   38 ar
    73   37   69 1
    74   38   70 1
    75   41   71 1
    76   41   72 1
    77   41   73 1
@<TRIPOS>MOLECULE
CHEMBL538642
   50    53     0     0     0
SMALL
USER_CHARGES

@<TRIPOS>ATOM
      1 C1         -0.0163    1.3512    0.0095 C.2       1 <0>        -0.1801
      2 C2          1.3081    1.7995   -0.0008 C.2       1 <0>        -0.0693
      3 C3          2.1126    0.6813   -0.0144 C.2       1 <0>        -0.0783
      4 C4          3.5658    0.5029   -0.0288 C.2       1 <0>         0.5860
      5 O1          4.3019    1.4727   -0.0304 O.2       1 <0>        -0.4880
      6 N1          4.0837   -0.7415   -0.0400 N.am      1 <0>        -0.6559
      7 H1          5.0461   -0.8624   -0.0495 H         1 <0>         0.4244
      8 C5          3.2458   -1.8567   -0.0374 C.ar      1 <0>         0.1605
      9 C6          3.7976   -3.1323   -0.0485 C.ar      1 <0>        -0.1106
     10 C7          2.9753   -4.2410   -0.0461 C.ar      1 <0>        -0.1426
     11 C8          1.5997   -4.0887   -0.0323 C.ar      1 <0>        -0.0914
     12 C9          1.0413   -2.8259   -0.0213 C.ar      1 <0>        -0.0983
     13 C10         1.8600   -1.7046   -0.0235 C.ar      1 <0>         0.1345
     14 N2          1.2908   -0.4267   -0.0125 N.pl3     1 <0>        -0.3878
     15 C11         0.0021   -0.0041    0.0020 C.2       1 <0>         0.0340
     16 C12         3.5775   -5.6224   -0.0591 C.3       1 <0>         0.0487
     17 N3          3.7867   -6.0784    1.3215 N.4       1 <0>        -0.5089
     18 C13         4.3737   -7.4249    1.3089 C.3       1 <0>        -0.0084
     19 C14         4.5916   -7.8998    2.7469 C.3       1 <0>        -0.1498
     20 C15         5.2030   -9.3023    2.7337 C.3       1 <0>         0.0563
     21 N4          5.4122   -9.7583    4.1143 N.3       1 <0>        -0.5374
     22 C16         6.4343   -8.9447    4.7887 C.3       1 <0>         0.0127
     23 C17         6.5775   -9.4142    6.2389 C.3       1 <0>         0.0603
     24 O2          6.8981  -10.8078    6.2541 O.3       1 <0>        -0.3802
     25 C18         5.9234  -11.6299    5.6062 C.3       1 <0>         0.0604
     26 C19         5.7736  -11.1829    4.1497 C.3       1 <0>         0.0176
     27 H2         -0.8981    1.9747    0.0252 H         1 <0>         0.1645
     28 H3          1.6379    2.8279    0.0013 H         1 <0>         0.1627
     29 H4          4.8704   -3.2562   -0.0593 H         1 <0>         0.1484
     30 H5          0.9614   -4.9598   -0.0306 H         1 <0>         0.1465
     31 H6         -0.0325   -2.7104   -0.0112 H         1 <0>         0.1509
     32 H7         -0.8682   -0.6436    0.0066 H         1 <0>         0.1808
     33 H8          2.9018   -6.3085   -0.5699 H         1 <0>         0.1441
     34 H9          4.5334   -5.5971   -0.5822 H         1 <0>         0.1413
     35 H10         4.4121   -5.4433    1.7944 H         1 <0>         0.4279
     36 H11         3.6981   -8.1110    0.7981 H         1 <0>         0.1358
     37 H12         5.3297   -7.3996    0.7858 H         1 <0>         0.1327
     38 H13         5.2673   -7.2138    3.2577 H         1 <0>         0.0875
     39 H14         3.6357   -7.9251    3.2700 H         1 <0>         0.0983
     40 H15         4.5274   -9.9884    2.2229 H         1 <0>         0.0880
     41 H16         6.1590   -9.2770    2.2106 H         1 <0>         0.0470
     42 H17         7.3881   -9.0583    4.2735 H         1 <0>         0.0481
     43 H18         6.1341   -7.8970    4.7733 H         1 <0>         0.0844
     44 H19         7.3741   -8.8521    6.7264 H         1 <0>         0.1022
     45 H20         5.6390   -9.2508    6.7687 H         1 <0>         0.0619
     46 H21         6.2470  -12.6703    5.6362 H         1 <0>         0.1049
     47 H22         4.9659  -11.5309    6.1176 H         1 <0>         0.0633
     48 H23         4.9911  -11.7690    3.6677 H         1 <0>         0.0914
     49 H24         6.7169  -11.3322    3.6243 H         1 <0>         0.0492
     50 H25         2.9018   -6.1018    1.8058 H         1 <0>         0.4297
@<TRIPOS>BOND
     1    1   15 2
     2    1    2 1
     3    1   27 1
     4    2    3 2
     5    2   28 1
     6    3   14 1
     7    3    4 1
     8    4    5 2
     9    4    6 am
    10    6    7 1
    11    6    8 1
    12    8   13 ar
    13    8    9 ar
    14    9   10 ar
    15    9   29 1
    16   10   11 ar
    17   10   16 1
    18   11   12 ar
    19   11   30 1
    20   12   13 ar
    21   12   31 1
    22   13   14 1
    23   14   15 1
    24   15   32 1
    25   16   17 1
    26   16   33 1
    27   16   34 1
    28   17   18 1
    29   17   35 1
    30   17   50 1
    31   18   19 1
    32   18   36 1
    33   18   37 1
    34   19   20 1
    35   19   38 1
    36   19   39 1
    37   20   21 1
    38   20   40 1
    39   20   41 1
    40   21   26 1
    41   21   22 1
    42   22   23 1
    43   22   42 1
    44   22   43 1
    45   23   24 1
    46   23   44 1
    47   23   45 1
    48   24   25 1
    49   25   26 1
    50   25   46 1
    51   25   47 1
    52   26   48 1
    53   26   49 1
@<TRIPOS>MOLECULE
CHEMBL538642__1
   51    54     0     0     0
SMALL
USER_CHARGES

@<TRIPOS>ATOM
      1 C1         -0.0163    1.3512    0.0095 C.2       1 <0>        -0.1759
      2 C2          1.3081    1.7995   -0.0008 C.2       1 <0>        -0.0633
      3 C3          2.1126    0.6813   -0.0144 C.2       1 <0>        -0.0807
      4 C4          3.5658    0.5029   -0.0288 C.2       1 <0>         0.5855
      5 O1          4.3019    1.4727   -0.0304 O.2       1 <0>        -0.4817
      6 N1          4.0837   -0.7415   -0.0400 N.am      1 <0>        -0.6571
      7 H1          5.0461   -0.8624   -0.0495 H         1 <0>         0.4244
      8 C5          3.2458   -1.8567   -0.0374 C.ar      1 <0>         0.1619
      9 C6          3.7976   -3.1323   -0.0485 C.ar      1 <0>        -0.1112
     10 C7          2.9753   -4.2410   -0.0461 C.ar      1 <0>        -0.1541
     11 C8          1.5997   -4.0887   -0.0323 C.ar      1 <0>        -0.0907
     12 C9          1.0413   -2.8259   -0.0213 C.ar      1 <0>        -0.0998
     13 C10         1.8600   -1.7046   -0.0235 C.ar      1 <0>         0.1443
     14 N2          1.2908   -0.4267   -0.0125 N.pl3     1 <0>        -0.3915
     15 C11         0.0021   -0.0041    0.0020 C.2       1 <0>         0.0342
     16 C12         3.5775   -5.6224   -0.0591 C.3       1 <0>         0.0511
     17 N3          3.7867   -6.0784    1.3215 N.4       1 <0>        -0.5104
     18 C13         4.3737   -7.4249    1.3089 C.3       1 <0>        -0.0047
     19 C14         4.5916   -7.8998    2.7469 C.3       1 <0>        -0.1856
     20 C15         5.2030   -9.3023    2.7337 C.3       1 <0>        -0.0048
     21 N4          5.4122   -9.7583    4.1143 N.4       1 <0>        -0.3863
     22 C16         6.4150   -8.9043    4.7657 C.3       1 <0>        -0.0500
     23 C17         6.6310   -9.3813    6.2041 C.3       1 <0>         0.0340
     24 O2          7.0380  -10.7524    6.1901 O.3       1 <0>        -0.3509
     25 C18         6.1038  -11.6217    5.5441 C.3       1 <0>         0.0336
     26 C19         5.8868  -11.1489    4.1045 C.3       1 <0>        -0.0437
     27 H2         -0.8981    1.9747    0.0252 H         1 <0>         0.1670
     28 H3          1.6379    2.8279    0.0013 H         1 <0>         0.1650
     29 H4          4.8704   -3.2562   -0.0593 H         1 <0>         0.1474
     30 H5          0.9614   -4.9598   -0.0306 H         1 <0>         0.1451
     31 H6         -0.0325   -2.7104   -0.0112 H         1 <0>         0.1523
     32 H7         -0.8682   -0.6436    0.0066 H         1 <0>         0.1820
     33 H8          2.9018   -6.3085   -0.5699 H         1 <0>         0.1466
     34 H9          4.5334   -5.5971   -0.5822 H         1 <0>         0.1443
     35 H10         4.4121   -5.4433    1.7944 H         1 <0>         0.4308
     36 H11         3.6981   -8.1110    0.7981 H         1 <0>         0.1455
     37 H12         5.3297   -7.3996    0.7858 H         1 <0>         0.1446
     38 H13         5.2673   -7.2138    3.2577 H         1 <0>         0.1109
     39 H14         3.6357   -7.9251    3.2700 H         1 <0>         0.1127
     40 H15         4.5274   -9.9884    2.2229 H         1 <0>         0.1447
     41 H16         6.1590   -9.2770    2.2106 H         1 <0>         0.1424
     42 H17         7.3552   -8.9646    4.2176 H         1 <0>         0.1435
     43 H18         6.0639   -7.8724    4.7737 H         1 <0>         0.1388
     44 H19         7.4056   -8.7765    6.6757 H         1 <0>         0.1454
     45 H20         5.7007   -9.2834    6.7637 H         1 <0>         0.0835
     46 H21         6.4967  -12.6384    5.5380 H         1 <0>         0.1481
     47 H22         5.1554  -11.6005    6.0810 H         1 <0>         0.0846
     48 H23         5.1435  -11.7833    3.6215 H         1 <0>         0.1473
     49 H24         6.8272  -11.2083    3.5566 H         1 <0>         0.1434
     50 H25         2.9018   -6.1018    1.8058 H         1 <0>         0.4318
     51 H26         4.5422   -9.7033    4.6223 H         1 <0>         0.4258
@<TRIPOS>BOND
     1    1   15 2
     2    1    2 1
     3    1   27 1
     4    2    3 2
     5    2   28 1
     6    3   14 1
     7    3    4 1
     8    4    5 2
     9    4    6 am
    10    6    7 1
    11    6    8 1
    12    8   13 ar
    13    8    9 ar
    14    9   10 ar
    15    9   29 1
    16   10   11 ar
    17   10   16 1
    18   11   12 ar
    19   11   30 1
    20   12   13 ar
    21   12   31 1
    22   13   14 1
    23   14   15 1
    24   15   32 1
    25   16   17 1
    26   16   33 1
    27   16   34 1
    28   17   18 1
    29   17   35 1
    30   17   50 1
    31   18   19 1
    32   18   36 1
    33   18   37 1
    34   19   20 1
    35   19   38 1
    36   19   39 1
    37   20   21 1
    38   20   40 1
    39   20   41 1
    40   21   26 1
    41   21   22 1
    42   21   51 1
    43   22   23 1
    44   22   42 1
    45   22   43 1
    46   23   24 1
    47   23   44 1
    48   23   45 1
    49   24   25 1
    50   25   26 1
    51   25   46 1
    52   25   47 1
    53   26   48 1
    54   26   49 1
@<TRIPOS>MOLECULE
CHEMBL538642__2
   50    53     0     0     0
SMALL
USER_CHARGES

@<TRIPOS>ATOM
      1 C1         -0.0163    1.3512    0.0095 C.2       1 <0>        -0.1885
      2 C2          1.3081    1.7995   -0.0008 C.2       1 <0>        -0.0817
      3 C3          2.1126    0.6813   -0.0144 C.2       1 <0>        -0.0761
      4 C4          3.5658    0.5029   -0.0288 C.2       1 <0>         0.5861
      5 O1          4.3019    1.4727   -0.0304 O.2       1 <0>        -0.5026
      6 N1          4.0837   -0.7415   -0.0400 N.am      1 <0>        -0.6548
      7 H1          5.0461   -0.8624   -0.0495 H         1 <0>         0.4208
      8 C5          3.2458   -1.8567   -0.0374 C.ar      1 <0>         0.1573
      9 C6          3.7976   -3.1323   -0.0485 C.ar      1 <0>        -0.1293
     10 C7          2.9753   -4.2410   -0.0461 C.ar      1 <0>        -0.0636
     11 C8          1.5997   -4.0887   -0.0323 C.ar      1 <0>        -0.0943
     12 C9          1.0413   -2.8259   -0.0213 C.ar      1 <0>        -0.0980
     13 C10         1.8600   -1.7046   -0.0235 C.ar      1 <0>         0.0993
     14 N2          1.2908   -0.4267   -0.0125 N.pl3     1 <0>        -0.3773
     15 C11         0.0021   -0.0041    0.0020 C.2       1 <0>         0.0311
     16 C12         3.5775   -5.6224   -0.0591 C.3       1 <0>         0.1010
     17 N3          3.7867   -6.0784    1.3215 N.3       1 <0>        -0.6842
     18 C13         4.3739   -7.4247    1.3481 C.3       1 <0>         0.0604
     19 C14         4.5765   -7.8642    2.7995 C.3       1 <0>        -0.1491
     20 C15         5.1880   -9.2664    2.8271 C.3       1 <0>        -0.0075
     21 N4          5.3826   -9.6884    4.2207 N.4       1 <0>        -0.3849
     22 C16         6.3783   -8.8184    4.8616 C.3       1 <0>        -0.0480
     23 C17         6.5790   -9.2600    6.3135 C.3       1 <0>         0.0359
     24 O2          6.9861  -10.6309    6.3374 O.3       1 <0>        -0.3565
     25 C18         6.0589  -11.5161    5.7029 C.3       1 <0>         0.0353
     26 C19         5.8572  -11.0787    4.2499 C.3       1 <0>        -0.0433
     27 H2         -0.8981    1.9747    0.0252 H         1 <0>         0.1596
     28 H3          1.6379    2.8279    0.0013 H         1 <0>         0.1580
     29 H4          4.8704   -3.2562   -0.0593 H         1 <0>         0.1368
     30 H5          0.9614   -4.9598   -0.0306 H         1 <0>         0.1386
     31 H6         -0.0325   -2.7104   -0.0112 H         1 <0>         0.1414
     32 H7         -0.8682   -0.6436    0.0066 H         1 <0>         0.1768
     33 H8          2.9018   -6.3085   -0.5699 H         1 <0>         0.0914
     34 H9          4.5334   -5.5971   -0.5822 H         1 <0>         0.0490
     35 H10         3.7038   -8.1233    0.8470 H         1 <0>         0.0861
     36 H11         5.3354   -7.4119    0.8347 H         1 <0>         0.0428
     37 H12         5.2466   -7.1656    3.3005 H         1 <0>         0.0859
     38 H13         3.6150   -7.8770    3.3128 H         1 <0>         0.0982
     39 H14         4.5179   -9.9650    2.3261 H         1 <0>         0.1351
     40 H15         6.1495   -9.2536    2.3138 H         1 <0>         0.1305
     41 H16         7.3243   -8.8918    4.3252 H         1 <0>         0.1387
     42 H17         6.0270   -7.7868    4.8406 H         1 <0>         0.1430
     43 H18         7.3484   -8.6436    6.7784 H         1 <0>         0.1420
     44 H19         5.6428   -9.1488    6.8605 H         1 <0>         0.0817
     45 H20         6.4520  -12.5325    5.7258 H         1 <0>         0.1426
     46 H21         5.1049  -11.4820    6.2290 H         1 <0>         0.0818
     47 H22         5.1192  -11.7250    3.7747 H         1 <0>         0.1434
     48 H23         6.8035  -11.1512    3.7137 H         1 <0>         0.1388
     49 H24         4.3579   -5.4246    1.8356 H         1 <0>         0.3465
     50 H25         4.5071   -9.6212    4.7179 H         1 <0>         0.4241
@<TRIPOS>BOND
     1    1   15 2
     2    1    2 1
     3    1   27 1
     4    2    3 2
     5    2   28 1
     6    3   14 1
     7    3    4 1
     8    4    5 2
     9    4    6 am
    10    6    7 1
    11    6    8 1
    12    8   13 ar
    13    8    9 ar
    14    9   10 ar
    15    9   29 1
    16   10   11 ar
    17   10   16 1
    18   11   12 ar
    19   11   30 1
    20   12   13 ar
    21   12   31 1
    22   13   14 1
    23   14   15 1
    24   15   32 1
    25   16   17 1
    26   16   33 1
    27   16   34 1
    28   17   18 1
    29   17   49 1
    30   18   19 1
    31   18   35 1
    32   18   36 1
    33   19   20 1
    34   19   37 1
    35   19   38 1
    36   20   21 1
    37   20   39 1
    38   20   40 1
    39   21   26 1
    40   21   22 1
    41   21   50 1
    42   22   23 1
    43   22   41 1
    44   22   42 1
    45   23   24 1
    46   23   43 1
    47   23   44 1
    48   24   25 1
    49   25   26 1
    50   25   45 1
    51   25   46 1
    52   26   47 1
    53   26   48 1
@<TRIPOS>MOLECULE
CHEMBL538642__3
   49    52     0     0     0
SMALL
USER_CHARGES

@<TRIPOS>ATOM
      1 C1         -0.0163    1.3512    0.0095 C.2       1 <0>        -0.1921
      2 C2          1.3081    1.7995   -0.0008 C.2       1 <0>        -0.0873
      3 C3          2.1126    0.6813   -0.0144 C.2       1 <0>        -0.0742
      4 C4          3.5658    0.5029   -0.0288 C.2       1 <0>         0.5863
      5 O1          4.3019    1.4727   -0.0304 O.2       1 <0>        -0.5088
      6 N1          4.0837   -0.7415   -0.0400 N.am      1 <0>        -0.6531
      7 H1          5.0461   -0.8624   -0.0495 H         1 <0>         0.4210
      8 C5          3.2458   -1.8567   -0.0374 C.ar      1 <0>         0.1557
      9 C6          3.7976   -3.1323   -0.0485 C.ar      1 <0>        -0.1293
     10 C7          2.9753   -4.2410   -0.0461 C.ar      1 <0>        -0.0517
     11 C8          1.5997   -4.0887   -0.0323 C.ar      1 <0>        -0.0937
     12 C9          1.0413   -2.8259   -0.0213 C.ar      1 <0>        -0.0977
     13 C10         1.8600   -1.7046   -0.0235 C.ar      1 <0>         0.0904
     14 N2          1.2908   -0.4267   -0.0125 N.pl3     1 <0>        -0.3725
     15 C11         0.0021   -0.0041    0.0020 C.2       1 <0>         0.0302
     16 C12         3.5775   -5.6224   -0.0591 C.3       1 <0>         0.0972
     17 N3          3.7867   -6.0784    1.3215 N.3       1 <0>        -0.6836
     18 C13         4.3739   -7.4247    1.3481 C.3       1 <0>         0.0597
     19 C14         4.5765   -7.8642    2.7995 C.3       1 <0>        -0.1144
     20 C15         5.1880   -9.2664    2.8271 C.3       1 <0>         0.0567
     21 N4          5.3826   -9.6884    4.2207 N.3       1 <0>        -0.5369
     22 C16         6.3973   -8.8582    4.8858 C.3       1 <0>         0.0145
     23 C17         6.5251   -9.2920    6.3485 C.3       1 <0>         0.0622
     24 O2          6.8455  -10.6848    6.4012 O.3       1 <0>        -0.3856
     25 C18         5.8779  -11.5228    5.7633 C.3       1 <0>         0.0626
     26 C19         5.7436  -11.1116    4.2947 C.3       1 <0>         0.0171
     27 H2         -0.8981    1.9747    0.0252 H         1 <0>         0.1572
     28 H3          1.6379    2.8279    0.0013 H         1 <0>         0.1558
     29 H4          4.8704   -3.2562   -0.0593 H         1 <0>         0.1379
     30 H5          0.9614   -4.9598   -0.0306 H         1 <0>         0.1401
     31 H6         -0.0325   -2.7104   -0.0112 H         1 <0>         0.1399
     32 H7         -0.8682   -0.6436    0.0066 H         1 <0>         0.1757
     33 H8          2.9018   -6.3085   -0.5699 H         1 <0>         0.0886
     34 H9          4.5334   -5.5971   -0.5822 H         1 <0>         0.0442
     35 H10         3.7038   -8.1233    0.8470 H         1 <0>         0.0763
     36 H11         5.3354   -7.4119    0.8347 H         1 <0>         0.0304
     37 H12         5.2466   -7.1656    3.3005 H         1 <0>         0.0615
     38 H13         3.6150   -7.8770    3.3128 H         1 <0>         0.0827
     39 H14         4.5179   -9.9650    2.3261 H         1 <0>         0.0783
     40 H15         6.1495   -9.2536    2.3138 H         1 <0>         0.0343
     41 H16         7.3566   -8.9841    4.3837 H         1 <0>         0.0423
     42 H17         6.0972   -7.8113    4.8415 H         1 <0>         0.0888
     43 H18         7.3164   -8.7180    6.8306 H         1 <0>         0.0985
     44 H19         5.5810   -9.1160    6.8641 H         1 <0>         0.0609
     45 H20         6.2012  -12.5621    5.8221 H         1 <0>         0.0992
     46 H21         4.9150  -11.4116    6.2619 H         1 <0>         0.0610
     47 H22         4.9663  -11.7095    3.8189 H         1 <0>         0.0874
     48 H23         6.6925  -11.2734    3.7832 H         1 <0>         0.0430
     49 H24         4.3579   -5.4246    1.8356 H         1 <0>         0.3432
@<TRIPOS>BOND
     1    1   15 2
     2    1    2 1
     3    1   27 1
     4    2    3 2
     5    2   28 1
     6    3   14 1
     7    3    4 1
     8    4    5 2
     9    4    6 am
    10    6    7 1
    11    6    8 1
    12    8   13 ar
    13    8    9 ar
    14    9   10 ar
    15    9   29 1
    16   10   11 ar
    17   10   16 1
    18   11   12 ar
    19   11   30 1
    20   12   13 ar
    21   12   31 1
    22   13   14 1
    23   14   15 1
    24   15   32 1
    25   16   17 1
    26   16   33 1
    27   16   34 1
    28   17   18 1
    29   17   49 1
    30   18   19 1
    31   18   35 1
    32   18   36 1
    33   19   20 1
    34   19   37 1
    35   19   38 1
    36   20   21 1
    37   20   39 1
    38   20   40 1
    39   21   26 1
    40   21   22 1
    41   22   23 1
    42   22   41 1
    43   22   42 1
    44   23   24 1
    45   23   43 1
    46   23   44 1
    47   24   25 1
    48   25   26 1
    49   25   45 1
    50   25   46 1
    51   26   47 1
    52   26   48 1
@<TRIPOS>MOLECULE
CHEMBL312719
   50    53     0     0     0
SMALL
USER_CHARGES

@<TRIPOS>ATOM
      1 C1         -0.0178    1.4648    0.0101 C.3       1 <0>        -0.0457
      2 N1          0.0021   -0.0041    0.0020 N.4       1 <0>        -0.3881
      3 C2         -1.3761   -0.5122    0.0107 C.3       1 <0>        -0.0027
      4 C3         -1.3560   -2.0421   -0.0167 C.3       1 <0>         0.0253
      5 N2         -0.6244   -2.5407    1.1564 N.3       1 <0>        -0.5343
      6 C4          0.7499   -2.0201    1.1745 C.3       1 <0>         0.0192
      7 C5          0.7125   -0.4904    1.1921 C.3       1 <0>        -0.0024
      8 C6         -0.6316   -4.0091    1.1963 C.3       1 <0>         0.0981
      9 C7         -0.0938   -4.4782    2.5236 C.ar      1 <0>        -0.0946
     10 C8          1.2625   -4.7055    2.6776 C.ar      1 <0>        -0.1021
     11 C9          1.7643   -5.1357    3.8928 C.ar      1 <0>        -0.1139
     12 C10         0.9141   -5.3410    4.9600 C.ar      1 <0>        -0.0935
     13 C11        -0.4546   -5.1137    4.8114 C.ar      1 <0>        -0.0227
     14 C12        -0.9538   -4.6746    3.5841 C.ar      1 <0>        -0.0422
     15 C13        -1.3716   -5.3321    5.9507 C.2       1 <0>         0.3181
     16 N3         -0.9935   -5.7498    7.1965 N.pl3     1 <0>        -0.5922
     17 H1         -0.0906   -5.9523    7.4876 H         1 <0>         0.4255
     18 C14        -2.1409   -5.8281    7.9629 C.ar      1 <0>         0.0431
     19 C15        -2.3944   -6.1844    9.2792 C.ar      1 <0>        -0.0795
     20 C16        -3.6862   -6.1622    9.7688 C.ar      1 <0>        -0.1073
     21 C17        -4.7413   -5.7862    8.9582 C.ar      1 <0>        -0.0827
     22 C18        -4.5161   -5.4235    7.6327 C.ar      1 <0>        -0.0906
     23 C19        -3.1995   -5.4422    7.1219 C.ar      1 <0>         0.1036
     24 N4         -2.6708   -5.1491    5.9207 N.2       1 <0>        -0.4498
     25 C20        -5.6420   -5.0235    6.7702 C.2       1 <0>         0.5603
     26 O1         -5.4395   -4.7078    5.6134 O.2       1 <0>        -0.5170
     27 N5         -6.8962   -5.0077    7.2635 N.am      1 <0>        -0.8535
     28 H2          1.0047    1.8421    0.0024 H         1 <0>         0.1237
     29 H3         -0.5450    1.8259   -0.8730 H         1 <0>         0.1243
     30 H4         -0.5280    1.8163    0.9069 H         1 <0>         0.1230
     31 H5         -1.8832   -0.1716    0.9134 H         1 <0>         0.1384
     32 H6         -1.9060   -0.1400   -0.8661 H         1 <0>         0.1365
     33 H7         -2.3783   -2.4196    0.0047 H         1 <0>         0.1261
     34 H8         -0.8610   -2.3831   -0.9260 H         1 <0>         0.0615
     35 H9          1.2641   -2.3816    2.0650 H         1 <0>         0.1255
     36 H10         1.2796   -2.3607    0.2848 H         1 <0>         0.0610
     37 H11         1.7310   -0.1020    1.1912 H         1 <0>         0.1350
     38 H12         0.1947   -0.1499    2.0888 H         1 <0>         0.1375
     39 H13        -1.6519   -4.3710    1.0694 H         1 <0>         0.1015
     40 H14        -0.0057   -4.3975    0.3929 H         1 <0>         0.0590
     41 H15         1.9321   -4.5466    1.8453 H         1 <0>         0.1241
     42 H16         2.8238   -5.3116    4.0063 H         1 <0>         0.1338
     43 H17         1.3071   -5.6772    5.9081 H         1 <0>         0.1243
     44 H18        -2.0116   -4.4929    3.4638 H         1 <0>         0.1448
     45 H19        -1.5796   -6.4805    9.9233 H         1 <0>         0.1324
     46 H20        -3.8737   -6.4417   10.7950 H         1 <0>         0.1431
     47 H21        -5.7456   -5.7741    9.3551 H         1 <0>         0.1379
     48 H22        -7.0577   -5.2596    8.1862 H         1 <0>         0.4001
     49 H23        -7.6373   -4.7445    6.6958 H         1 <0>         0.4063
     50 H24         0.4748   -0.3293   -0.8280 H         1 <0>         0.4220
@<TRIPOS>BOND
     1    1    2 1
     2    1   28 1
     3    1   29 1
     4    1   30 1
     5    2    7 1
     6    2    3 1
     7    2   50 1
     8    3    4 1
     9    3   31 1
    10    3   32 1
    11    4    5 1
    12    4   33 1
    13    4   34 1
    14    5    6 1
    15    5    8 1
    16    6    7 1
    17    6   35 1
    18    6   36 1
    19    7   37 1
    20    7   38 1
    21    8    9 1
    22    8   39 1
    23    8   40 1
    24    9   14 ar
    25    9   10 ar
    26   10   11 ar
    27   10   41 1
    28   11   12 ar
    29   11   42 1
    30   12   13 ar
    31   12   43 1
    32   13   14 ar
    33   13   15 1
    34   14   44 1
    35   15   24 2
    36   15   16 1
    37   16   17 1
    38   16   18 1
    39   18   23 ar
    40   18   19 ar
    41   19   20 ar
    42   19   45 1
    43   20   21 ar
    44   20   46 1
    45   21   22 ar
    46   21   47 1
    47   22   23 ar
    48   22   25 1
    49   23   24 1
    50   25   26 2
    51   25   27 am
    52   27   48 1
    53   27   49 1
@<TRIPOS>MOLECULE
CHEMBL312719__1
   50    53     0     0     0
SMALL
USER_CHARGES

@<TRIPOS>ATOM
      1 C1         -0.0178    1.4648    0.0101 C.3       1 <0>         0.0194
      2 N1          0.0021   -0.0041    0.0020 N.3       1 <0>        -0.5430
      3 C2         -1.3607   -0.5489   -0.0764 C.3       1 <0>         0.0238
      4 C3         -1.2932   -2.0762   -0.1426 C.3       1 <0>        -0.0024
      5 N2         -0.6107   -2.5886    1.0529 N.4       1 <0>        -0.3864
      6 C4          0.7570   -2.0553    1.1043 C.3       1 <0>        -0.0070
      7 C5          0.7065   -0.5278    1.1808 C.3       1 <0>         0.0255
      8 C6         -0.5621   -4.0557    0.9977 C.3       1 <0>         0.0456
      9 C7          0.0271   -4.5874    2.2788 C.ar      1 <0>        -0.1576
     10 C8          1.3944   -4.7711    2.3859 C.ar      1 <0>        -0.0838
     11 C9          1.9432   -5.2583    3.5585 C.ar      1 <0>        -0.1075
     12 C10         1.1292   -5.5643    4.6298 C.ar      1 <0>        -0.0725
     13 C11        -0.2504   -5.3813    4.5284 C.ar      1 <0>        -0.0125
     14 C12        -0.7973   -4.8845    3.3442 C.ar      1 <0>        -0.0467
     15 C13        -1.1288   -5.7077    5.6723 C.2       1 <0>         0.3044
     16 N3         -0.7033   -6.1891    6.8792 N.pl3     1 <0>        -0.5894
     17 H1          0.2137   -6.3745    7.1352 H         1 <0>         0.4266
     18 C14        -1.8268   -6.3608    7.6656 C.ar      1 <0>         0.0480
     19 C15        -2.0327   -6.8101    8.9616 C.ar      1 <0>        -0.0801
     20 C16        -3.3112   -6.8695    9.4817 C.ar      1 <0>        -0.1017
     21 C17        -4.4003   -6.4838    8.7221 C.ar      1 <0>        -0.0807
     22 C18        -4.2231   -6.0286    7.4180 C.ar      1 <0>        -0.0888
     23 C19        -2.9204   -5.9634    6.8764 C.ar      1 <0>         0.1012
     24 N4         -2.4343   -5.5738    5.6847 N.2       1 <0>        -0.4464
     25 C20        -5.3851   -5.6184    6.6099 C.2       1 <0>         0.5618
     26 O1         -5.2246   -5.2217    5.4716 O.2       1 <0>        -0.5210
     27 N5         -6.6258   -5.6830    7.1324 N.am      1 <0>        -0.8517
     28 H2          1.0047    1.8421    0.0024 H         1 <0>         0.0838
     29 H3         -0.5450    1.8259   -0.8730 H         1 <0>         0.0839
     30 H4         -0.5280    1.8163    0.9069 H         1 <0>         0.0392
     31 H5         -1.9242   -0.2477    0.8067 H         1 <0>         0.0610
     32 H6         -1.8539   -0.1676   -0.9705 H         1 <0>         0.1245
     33 H7         -2.3035   -2.4830   -0.1865 H         1 <0>         0.1379
     34 H8         -0.7413   -2.3773   -1.0330 H         1 <0>         0.1389
     35 H9          1.2666   -2.4465    1.9848 H         1 <0>         0.1345
     36 H10         1.2983   -2.3564    0.2075 H         1 <0>         0.1382
     37 H11         1.7215   -0.1310    1.2040 H         1 <0>         0.1228
     38 H12         0.1771   -0.2262    2.0846 H         1 <0>         0.0597
     39 H13        -1.5711   -4.4482    0.8715 H         1 <0>         0.1418
     40 H14         0.0569   -4.3674    0.1563 H         1 <0>         0.1403
     41 H15         2.0359   -4.5335    1.5501 H         1 <0>         0.1381
     42 H16         3.0112   -5.3998    3.6356 H         1 <0>         0.1445
     43 H17         1.5589   -5.9449    5.5446 H         1 <0>         0.1330
     44 H18        -1.8639   -4.7367    3.2608 H         1 <0>         0.1508
     45 H19        -1.1910   -7.1148    9.5658 H         1 <0>         0.1345
     46 H20        -3.4616   -7.2210   10.4917 H         1 <0>         0.1455
     47 H21        -5.3938   -6.5361    9.1424 H         1 <0>         0.1400
     48 H22        -6.7539   -5.9994    8.0404 H         1 <0>         0.4011
     49 H23        -7.3907   -5.4130    6.6005 H         1 <0>         0.4076
     50 H24        -1.1152   -2.2999    1.8777 H         1 <0>         0.4216
@<TRIPOS>BOND
     1    1    2 1
     2    1   28 1
     3    1   29 1
     4    1   30 1
     5    2    7 1
     6    2    3 1
     7    3    4 1
     8    3   31 1
     9    3   32 1
    10    4    5 1
    11    4   33 1
    12    4   34 1
    13    5    6 1
    14    5    8 1
    15    5   50 1
    16    6    7 1
    17    6   35 1
    18    6   36 1
    19    7   37 1
    20    7   38 1
    21    8    9 1
    22    8   39 1
    23    8   40 1
    24    9   14 ar
    25    9   10 ar
    26   10   11 ar
    27   10   41 1
    28   11   12 ar
    29   11   42 1
    30   12   13 ar
    31   12   43 1
    32   13   14 ar
    33   13   15 1
    34   14   44 1
    35   15   24 2
    36   15   16 1
    37   16   17 1
    38   16   18 1
    39   18   23 ar
    40   18   19 ar
    41   19   20 ar
    42   19   45 1
    43   20   21 ar
    44   20   46 1
    45   21   22 ar
    46   21   47 1
    47   22   23 ar
    48   22   25 1
    49   23   24 1
    50   25   26 2
    51   25   27 am
    52   27   48 1
    53   27   49 1
@<TRIPOS>MOLECULE
CHEMBL107935
   56    59     0     0     0
SMALL
USER_CHARGES

@<TRIPOS>ATOM
      1 C1          3.9170    1.3883   -3.6184 C.ar      1 <0>        -0.1493
      2 C2          3.7772    0.0127   -3.6123 C.ar      1 <0>        -0.0812
      3 C3          3.6660   -0.6661   -2.4144 C.ar      1 <0>        -0.1945
      4 C4          3.6952    0.0337   -1.2165 C.ar      1 <0>         0.1192
      5 C5          3.8361    1.4141   -1.2255 C.ar      1 <0>        -0.1430
      6 C6          3.9464    2.0881   -2.4262 C.ar      1 <0>        -0.0814
      7 O1          3.5855   -0.6316   -0.0368 O.3       1 <0>        -0.2615
      8 C7          3.4589   -1.9816   -0.0764 C.ar      1 <0>         0.1250
      9 C8          2.1944   -2.5575   -0.1441 C.ar      1 <0>        -0.1385
     10 C9          2.0611   -3.9215   -0.1843 C.ar      1 <0>        -0.0399
     11 C10         3.2006   -4.7351   -0.1576 C.ar      1 <0>        -0.1730
     12 C11         4.4713   -4.1503   -0.0898 C.ar      1 <0>        -0.0551
     13 C12         4.5941   -2.7852   -0.0549 C.ar      1 <0>        -0.1378
     14 C13         3.0635   -6.1966   -0.1999 C.2       1 <0>         0.3960
     15 O2          1.9619   -6.7010   -0.2582 O.2       1 <0>        -0.4436
     16 C14         4.2914   -7.0698   -0.1710 C.3       1 <0>         0.0723
     17 N1          3.8906   -8.4780   -0.2229 N.am      1 <0>        -0.7236
     18 C15         4.8279   -9.4463   -0.2084 C.2       1 <0>         0.5258
     19 O3          6.0031   -9.1520   -0.1524 O.2       1 <0>        -0.5323
     20 C16         4.4156  -10.8949   -0.2619 C.3       1 <0>        -0.1630
     21 C17         5.6623  -11.7814   -0.2325 C.3       1 <0>         0.1166
     22 N2          5.2615  -13.1895   -0.2844 N.am      1 <0>        -0.5391
     23 C18         5.0226  -13.8622    0.9038 C.2       1 <0>         0.2143
     24 C19         4.6350  -15.1387    0.8422 C.2       1 <0>        -0.2477
     25 C20         4.5335  -15.7683   -0.4363 C.2       1 <0>         0.5551
     26 O4          4.2169  -16.9421   -0.5068 O.2       1 <0>        -0.5049
     27 N3          4.7833  -15.0788   -1.5603 N.am      1 <0>        -0.6560
     28 H1          4.7091  -15.5106   -2.4257 H         1 <0>         0.4350
     29 C21         5.1332  -13.7813   -1.4768 C.2       1 <0>         0.6982
     30 O5          5.3380  -13.1445   -2.4921 O.2       1 <0>        -0.5314
     31 C22         4.2543  -16.0100    2.0130 C.3       1 <0>        -0.0103
     32 S1          4.9225  -15.3204    3.5524 S.3       1 <0>        -0.2342
     33 C23         4.5222  -13.5530    3.3660 C.3       1 <0>        -0.0833
     34 C24         5.2630  -13.0421    2.1385 C.3       1 <0>        -0.1028
     35 H2          4.0080    1.9167   -4.5559 H         1 <0>         0.1271
     36 H3          3.7545   -0.5314   -4.5449 H         1 <0>         0.1275
     37 H4          3.5560   -1.7405   -2.4102 H         1 <0>         0.1268
     38 H5          3.8587    1.9611   -0.2945 H         1 <0>         0.1341
     39 H6          4.0557    3.1625   -2.4337 H         1 <0>         0.1333
     40 H7          1.3163   -1.9291   -0.1647 H         1 <0>         0.1412
     41 H8          1.0789   -4.3676   -0.2362 H         1 <0>         0.1444
     42 H9          5.3531   -4.7735   -0.0685 H         1 <0>         0.1439
     43 H10         5.5737   -2.3331   -0.0064 H         1 <0>         0.1421
     44 H11         4.9214   -6.8394   -1.0301 H         1 <0>         0.1100
     45 H12         4.8478   -6.8840    0.7477 H         1 <0>         0.1105
     46 H13         2.9507   -8.7134   -0.2678 H         1 <0>         0.4122
     47 H14         3.7856  -11.1253    0.5973 H         1 <0>         0.1031
     48 H15         3.8593  -11.0806   -1.1806 H         1 <0>         0.1091
     49 H16         6.2923  -11.5510   -1.0916 H         1 <0>         0.1176
     50 H17         6.2186  -11.5956    0.6863 H         1 <0>         0.1116
     51 H18         3.1680  -16.0652    2.0838 H         1 <0>         0.1029
     52 H19         4.6553  -17.0123    1.8625 H         1 <0>         0.1278
     53 H20         3.4480  -13.4295    3.2281 H         1 <0>         0.0957
     54 H21         4.8481  -13.0045    4.2498 H         1 <0>         0.1260
     55 H22         6.3318  -13.0398    2.3525 H         1 <0>         0.1176
     56 H23         4.9477  -12.0172    1.9428 H         1 <0>         0.1052
@<TRIPOS>BOND
     1    1    6 ar
     2    1    2 ar
     3    1   35 1
     4    2    3 ar
     5    2   36 1
     6    3    4 ar
     7    3   37 1
     8    4    5 ar
     9    4    7 1
    10    5    6 ar
    11    5   38 1
    12    6   39 1
    13    7    8 1
    14    8   13 ar
    15    8    9 ar
    16    9   10 ar
    17    9   40 1
    18   10   11 ar
    19   10   41 1
    20   11   12 ar
    21   11   14 1
    22   12   13 ar
    23   12   42 1
    24   13   43 1
    25   14   15 2
    26   14   16 1
    27   16   17 1
    28   16   44 1
    29   16   45 1
    30   17   18 am
    31   17   46 1
    32   18   19 2
    33   18   20 1
    34   20   21 1
    35   20   47 1
    36   20   48 1
    37   21   22 1
    38   21   49 1
    39   21   50 1
    40   22   29 am
    41   22   23 1
    42   23   34 1
    43   23   24 2
    44   24   25 1
    45   24   31 1
    46   25   26 2
    47   25   27 am
    48   27   28 1
    49   27   29 am
    50   29   30 2
    51   31   32 1
    52   31   51 1
    53   31   52 1
    54   32   33 1
    55   33   34 1
    56   33   53 1
    57   33   54 1
    58   34   55 1
    59   34   56 1
@<TRIPOS>MOLECULE
CHEMBL343665
   33    36     0     0     0
SMALL
USER_CHARGES

@<TRIPOS>ATOM
      1 C1         -0.0167    1.3768    0.0096 C.ar      1 <0>        -0.1072
      2 C2          1.1576    2.1045    0.0023 C.ar      1 <0>        -0.0726
      3 C3          2.3930    1.4545   -0.0345 C.ar      1 <0>        -0.0896
      4 C4          2.4121    0.0472   -0.1417 C.ar      1 <0>        -0.0671
      5 C5          1.2132   -0.6828   -0.0633 C.ar      1 <0>         0.0925
      6 C6          0.0021   -0.0041    0.0020 C.ar      1 <0>        -0.0969
      7 N1          1.5462   -2.0210   -0.0900 N.pl3     1 <0>        -0.5810
      8 H1          0.9284   -2.7597    0.0266 H         1 <0>         0.4209
      9 C7          2.8990   -2.1347   -0.3089 C.2       1 <0>         0.1341
     10 C8          3.4479   -0.8974   -0.3751 C.2       1 <0>        -0.1483
     11 C9          4.8605   -0.5280   -0.6598 C.3       1 <0>        -0.0770
     12 C10         4.9764    0.7980   -1.3700 C.3       1 <0>         0.1127
     13 N2          4.8026    1.9361   -0.5018 N.am      1 <0>        -0.7152
     14 C11         3.6226    2.2387    0.0723 C.2       1 <0>         0.5637
     15 O1          3.5753    3.2549    0.7388 O.2       1 <0>        -0.5435
     16 C12         3.6387   -3.4073   -0.4494 C.ar      1 <0>        -0.0875
     17 C13         3.3996   -4.4704    0.4294 C.ar      1 <0>        -0.0636
     18 C14         4.1179   -5.6399    0.2547 C.ar      1 <0>        -0.1661
     19 C15         5.0407   -5.7208   -0.7729 C.ar      1 <0>         0.1066
     20 N3          5.2452   -4.7025   -1.5861 N.ar      1 <0>        -0.4769
     21 C16         4.5827   -3.5708   -1.4638 C.ar      1 <0>         0.1248
     22 H2         -0.9637    1.8957    0.0260 H         1 <0>         0.1367
     23 H3          1.1198    3.1836    0.0249 H         1 <0>         0.1359
     24 H4         -0.9247   -0.5568    0.0473 H         1 <0>         0.1280
     25 H5          5.4076   -0.4734    0.2814 H         1 <0>         0.0784
     26 H6          5.3092   -1.3022   -1.2823 H         1 <0>         0.0878
     27 H7          5.9610    0.8603   -1.8335 H         1 <0>         0.0921
     28 H8          4.2216    0.8401   -2.1552 H         1 <0>         0.0705
     29 H9          5.5666    2.5067   -0.3238 H         1 <0>         0.4061
     30 H10         2.6733   -4.3799    1.2236 H         1 <0>         0.1347
     31 H11         3.9601   -6.4808    0.9139 H         1 <0>         0.1417
     32 H12         5.6030   -6.6324   -0.9113 H         1 <0>         0.1616
     33 H13         4.7747   -2.7609   -2.1521 H         1 <0>         0.1638
@<TRIPOS>BOND
     1    1    6 ar
     2    1    2 ar
     3    1   22 1
     4    2    3 ar
     5    2   23 1
     6    3   14 1
     7    3    4 ar
     8    4   10 1
     9    4    5 ar
    10    5    6 ar
    11    5    7 1
    12    6   24 1
    13    7    8 1
    14    7    9 1
    15    9   10 2
    16    9   16 1
    17   10   11 1
    18   11   12 1
    19   11   25 1
    20   11   26 1
    21   12   13 1
    22   12   27 1
    23   12   28 1
    24   13   14 am
    25   13   29 1
    26   14   15 2
    27   16   21 ar
    28   16   17 ar
    29   17   18 ar
    30   17   30 1
    31   18   19 ar
    32   18   31 1
    33   19   20 ar
    34   19   32 1
    35   20   21 ar
    36   21   33 1
@<TRIPOS>MOLECULE
CHEMBL321638
   59    62     0     0     0
SMALL
USER_CHARGES

@<TRIPOS>ATOM
      1 C1         -0.0173    1.4248    0.0099 C.3       1 <0>         0.0248
      2 O1          0.0021   -0.0041    0.0020 O.3       1 <0>        -0.3146
      3 C2          0.6055   -0.6068   -1.0551 C.ar      1 <0>         0.1397
      4 C3          1.1724    0.1644   -2.0615 C.ar      1 <0>        -0.2088
      5 C4          1.7855   -0.4440   -3.1357 C.ar      1 <0>        -0.0597
      6 C5          1.8361   -1.8361   -3.2113 C.ar      1 <0>        -0.1026
      7 C6          1.2657   -2.6077   -2.1988 C.ar      1 <0>        -0.0605
      8 C7          0.6591   -1.9929   -1.1245 C.ar      1 <0>        -0.1514
      9 C8          2.4939   -2.4935   -4.3646 C.ar      1 <0>         0.0096
     10 C9          3.0685   -1.7186   -5.3739 C.ar      1 <0>        -0.1316
     11 C10         3.6754   -2.3225   -6.4381 C.ar      1 <0>        -0.0469
     12 C11         3.7209   -3.7200   -6.5164 C.ar      1 <0>        -0.1814
     13 C12         3.1439   -4.4951   -5.5029 C.ar      1 <0>        -0.0619
     14 C13         2.5431   -3.8868   -4.4377 C.ar      1 <0>        -0.1302
     15 C14         4.3728   -4.3720   -7.6605 C.2       1 <0>         0.3955
     16 O2          4.8720   -3.6997   -8.5380 O.2       1 <0>        -0.4493
     17 C15         4.4212   -5.8759   -7.7436 C.3       1 <0>         0.0726
     18 N1          5.1189   -6.2751   -8.9684 N.am      1 <0>        -0.7232
     19 C16         5.2830   -7.5818   -9.2550 C.2       1 <0>         0.5254
     20 O3          4.8532   -8.4271   -8.4990 O.2       1 <0>        -0.5330
     21 C17         6.0007   -7.9924  -10.5149 C.3       1 <0>        -0.1630
     22 C18         6.0498   -9.5193  -10.5993 C.3       1 <0>         0.1167
     23 N2          6.7475   -9.9185  -11.8241 N.am      1 <0>        -0.5391
     24 C19         6.0126  -10.0963  -12.9859 C.2       1 <0>         0.2146
     25 C20         6.6634  -10.4372  -14.1011 C.2       1 <0>        -0.2481
     26 C21         8.0742  -10.6534  -14.0383 C.2       1 <0>         0.5552
     27 O4          8.6761  -11.0004  -15.0385 O.2       1 <0>        -0.5052
     28 N3          8.7429  -10.4774  -12.8880 N.am      1 <0>        -0.6561
     29 H1          9.7013  -10.6221  -12.8524 H         1 <0>         0.4350
     30 C22         8.0727  -10.0939  -11.7850 C.2       1 <0>         0.6981
     31 O5          8.6757   -9.9099  -10.7454 O.2       1 <0>        -0.5312
     32 C23         6.0549  -10.5987  -15.4718 C.3       1 <0>        -0.0100
     33 S1          4.2614  -10.8386  -15.3384 S.3       1 <0>        -0.2345
     34 C24         3.8114   -9.5639  -14.1171 C.3       1 <0>        -0.0831
     35 C25         4.5337   -9.8970  -12.8194 C.3       1 <0>        -0.1030
     36 H2          1.0053    1.8021    0.0021 H         1 <0>         0.0579
     37 H3         -0.5445    1.7859   -0.8732 H         1 <0>         0.0579
     38 H4         -0.5275    1.7763    0.9067 H         1 <0>         0.1033
     39 H5          1.1325    1.2421   -2.0025 H         1 <0>         0.1330
     40 H6          2.2258    0.1563   -3.9181 H         1 <0>         0.1307
     41 H7          1.3030   -3.6857   -2.2545 H         1 <0>         0.1358
     42 H8          0.2212   -2.5897   -0.3381 H         1 <0>         0.1363
     43 H9          3.0328   -0.6409   -5.3133 H         1 <0>         0.1328
     44 H10         4.1195   -1.7228   -7.2188 H         1 <0>         0.1365
     45 H11         3.1776   -5.5730   -5.5614 H         1 <0>         0.1363
     46 H12         2.1018   -4.4842   -3.6536 H         1 <0>         0.1348
     47 H13         4.9526   -6.2707   -6.8776 H         1 <0>         0.1089
     48 H14         3.4058   -6.2718   -7.7584 H         1 <0>         0.1091
     49 H15         5.4627   -5.5990   -9.5730 H         1 <0>         0.4119
     50 H16         5.4693   -7.5976  -11.3809 H         1 <0>         0.1027
     51 H17         7.0161   -7.5965  -10.5002 H         1 <0>         0.1089
     52 H18         6.5812   -9.9141   -9.7334 H         1 <0>         0.1175
     53 H19         5.0344   -9.9152  -10.6141 H         1 <0>         0.1116
     54 H20         6.2567   -9.7060  -16.0637 H         1 <0>         0.1027
     55 H21         6.4992  -11.4636  -15.9644 H         1 <0>         0.1277
     56 H22         4.1247   -8.5827  -14.4737 H         1 <0>         0.0957
     57 H23         2.7337   -9.5723  -13.9535 H         1 <0>         0.1260
     58 H24         4.1037  -10.8091  -12.4056 H         1 <0>         0.1176
     59 H25         4.3691   -9.0852  -12.1109 H         1 <0>         0.1054
@<TRIPOS>BOND
     1    1    2 1
     2    1   36 1
     3    1   37 1
     4    1   38 1
     5    2    3 1
     6    3    8 ar
     7    3    4 ar
     8    4    5 ar
     9    4   39 1
    10    5    6 ar
    11    5   40 1
    12    6    7 ar
    13    6    9 1
    14    7    8 ar
    15    7   41 1
    16    8   42 1
    17    9   14 ar
    18    9   10 ar
    19   10   11 ar
    20   10   43 1
    21   11   12 ar
    22   11   44 1
    23   12   13 ar
    24   12   15 1
    25   13   14 ar
    26   13   45 1
    27   14   46 1
    28   15   16 2
    29   15   17 1
    30   17   18 1
    31   17   47 1
    32   17   48 1
    33   18   19 am
    34   18   49 1
    35   19   20 2
    36   19   21 1
    37   21   22 1
    38   21   50 1
    39   21   51 1
    40   22   23 1
    41   22   52 1
    42   22   53 1
    43   23   30 am
    44   23   24 1
    45   24   35 1
    46   24   25 2
    47   25   26 1
    48   25   32 1
    49   26   27 2
    50   26   28 am
    51   28   29 1
    52   28   30 am
    53   30   31 2
    54   32   33 1
    55   32   54 1
    56   32   55 1
    57   33   34 1
    58   34   35 1
    59   34   56 1
    60   34   57 1
    61   35   58 1
    62   35   59 1
@<TRIPOS>MOLECULE
CHEMBL594651
   54    58     0     0     0
SMALL
USER_CHARGES

@<TRIPOS>ATOM
      1 C1         -0.0166    1.3737    0.0096 C.ar      1 <0>        -0.0797
      2 C2          1.1681    2.0979    0.0022 C.ar      1 <0>        -0.1232
      3 C3          2.3853    1.4539   -0.0133 C.ar      1 <0>        -0.0456
      4 C4          2.4274    0.0592   -0.0212 C.ar      1 <0>        -0.1392
      5 C5          1.2222   -0.6757   -0.0131 C.ar      1 <0>         0.0331
      6 C6          0.0021   -0.0041    0.0020 C.ar      1 <0>        -0.1000
      7 C7          1.2980   -2.1457   -0.0212 C.2       1 <0>         0.0626
      8 C8          2.5412   -2.7575   -0.0363 C.2       1 <0>         0.2165
      9 N1          3.7032   -2.0182   -0.0431 N.am      1 <0>        -0.6140
     10 H1          4.5540   -2.4838   -0.0538 H         1 <0>         0.4117
     11 C9          3.6996   -0.6725   -0.0372 C.2       1 <0>         0.5744
     12 O1          4.7530   -0.0612   -0.0448 O.2       1 <0>        -0.5073
     13 N2          2.3110   -4.1083   -0.0412 N.pl3     1 <0>        -0.3593
     14 C10         3.1556   -5.1842   -0.0545 C.2       1 <0>         0.0436
     15 C11         2.6670   -6.4409   -0.0560 C.2       1 <0>        -0.0733
     16 C12         1.2786   -6.6628   -0.0444 C.2       1 <0>        -0.6682
     17 C13         0.4259   -5.6044   -0.0311 C.2       1 <0>         0.0771
     18 C14         0.9491   -4.2933   -0.0292 C.2       1 <0>         0.2116
     19 N3          0.3594   -3.1088   -0.0173 N.2       1 <0>        -0.4177
     20 S1          0.6463   -8.3074   -0.0476 S.o2      1 <0>         2.7031
     21 O2          1.4257   -9.0441    0.8847 O.2       1 <0>        -0.9424
     22 O3         -0.7667   -8.1995    0.0577 O.2       1 <0>        -0.9477
     23 N4          0.9618   -8.9504   -1.5408 N.pl3     1 <0>        -1.1120
     24 C15         2.3466   -9.1652   -1.9680 C.3       1 <0>         0.1125
     25 C16         2.3666  -10.0902   -3.1866 C.3       1 <0>        -0.1250
     26 C17         3.8128  -10.3145   -3.6328 C.3       1 <0>         0.0546
     27 N5          3.8321  -11.2026   -4.8029 N.3       1 <0>        -0.5375
     28 C18         3.3692  -12.5520   -4.4477 C.3       1 <0>         0.0125
     29 C19         3.3484  -13.4258   -5.7047 C.3       1 <0>         0.0621
     30 O4          4.6521  -13.4378   -6.2925 O.3       1 <0>        -0.3850
     31 C20         5.1338  -12.1399   -6.6513 C.3       1 <0>         0.0625
     32 C21         5.1728  -11.2531   -5.4039 C.3       1 <0>         0.0172
     33 H2         -0.9621    1.8954    0.0259 H         1 <0>         0.1370
     34 H3          1.1347    3.1773    0.0083 H         1 <0>         0.1376
     35 H4          3.3019    2.0251   -0.0197 H         1 <0>         0.1446
     36 H5         -0.9239   -0.5599    0.0086 H         1 <0>         0.1428
     37 H6          4.2239   -5.0256   -0.0642 H         1 <0>         0.1713
     38 H7          3.3453   -7.2812   -0.0665 H         1 <0>         0.1636
     39 H8         -0.6420   -5.7651   -0.0218 H         1 <0>         0.1813
     40 H9          0.2298   -9.1847   -2.1325 H         1 <0>         0.4237
     41 H10         2.7984   -8.2086   -2.2305 H         1 <0>         0.0683
     42 H11         2.9107   -9.6227   -1.1553 H         1 <0>         0.0836
     43 H12         1.9148  -11.0468   -2.9242 H         1 <0>         0.0758
     44 H13         1.8025   -9.6327   -3.9993 H         1 <0>         0.0830
     45 H14         4.2647   -9.3579   -3.8953 H         1 <0>         0.0802
     46 H15         4.3770  -10.7721   -2.8201 H         1 <0>         0.0417
     47 H16         4.0465  -12.9875   -3.7130 H         1 <0>         0.0453
     48 H17         2.3649  -12.4937   -4.0283 H         1 <0>         0.0900
     49 H18         3.0606  -14.4424   -5.4366 H         1 <0>         0.0994
     50 H19         2.6312  -13.0200   -6.4182 H         1 <0>         0.0605
     51 H20         6.1374  -12.2265   -7.0678 H         1 <0>         0.0993
     52 H21         4.4685  -11.6967   -7.3923 H         1 <0>         0.0607
     53 H22         5.4849  -10.2466   -5.6825 H         1 <0>         0.0873
     54 H23         5.8788  -11.6678   -4.6845 H         1 <0>         0.0448
@<TRIPOS>BOND
     1    1    6 ar
     2    1    2 ar
     3    1   33 1
     4    2    3 ar
     5    2   34 1
     6    3    4 ar
     7    3   35 1
     8    4   11 1
     9    4    5 ar
    10    5    6 ar
    11    5    7 1
    12    6   36 1
    13    7   19 1
    14    7    8 2
    15    8    9 1
    16    8   13 1
    17    9   10 1
    18    9   11 am
    19   11   12 2
    20   13   18 1
    21   13   14 1
    22   14   15 2
    23   14   37 1
    24   15   16 1
    25   15   38 1
    26   16   17 2
    27   16   20 1
    28   17   18 1
    29   17   39 1
    30   18   19 2
    31   20   21 2
    32   20   22 2
    33   20   23 1
    34   23   24 1
    35   23   40 1
    36   24   25 1
    37   24   41 1
    38   24   42 1
    39   25   26 1
    40   25   43 1
    41   25   44 1
    42   26   27 1
    43   26   45 1
    44   26   46 1
    45   27   32 1
    46   27   28 1
    47   28   29 1
    48   28   47 1
    49   28   48 1
    50   29   30 1
    51   29   49 1
    52   29   50 1
    53   30   31 1
    54   31   32 1
    55   31   51 1
    56   31   52 1
    57   32   53 1
    58   32   54 1
@<TRIPOS>MOLECULE
CHEMBL594651__1
   55    59     0     0     0
SMALL
USER_CHARGES

@<TRIPOS>ATOM
      1 C1         -0.0166    1.3737    0.0096 C.ar      1 <0>        -0.0779
      2 C2          1.1681    2.0979    0.0022 C.ar      1 <0>        -0.1190
      3 C3          2.3853    1.4539   -0.0133 C.ar      1 <0>        -0.0449
      4 C4          2.4274    0.0592   -0.0212 C.ar      1 <0>        -0.1389
      5 C5          1.2222   -0.6757   -0.0131 C.ar      1 <0>         0.0272
      6 C6          0.0021   -0.0041    0.0020 C.ar      1 <0>        -0.0987
      7 C7          1.2980   -2.1457   -0.0212 C.2       1 <0>         0.0677
      8 C8          2.5412   -2.7575   -0.0363 C.2       1 <0>         0.2228
      9 N1          3.7032   -2.0182   -0.0431 N.am      1 <0>        -0.6156
     10 H1          4.5540   -2.4838   -0.0538 H         1 <0>         0.4112
     11 C9          3.6996   -0.6725   -0.0372 C.2       1 <0>         0.5746
     12 O1          4.7530   -0.0612   -0.0448 O.2       1 <0>        -0.5016
     13 N2          2.3110   -4.1083   -0.0412 N.pl3     1 <0>        -0.3625
     14 C10         3.1556   -5.1842   -0.0545 C.2       1 <0>         0.0497
     15 C11         2.6670   -6.4409   -0.0560 C.2       1 <0>        -0.0831
     16 C12         1.2786   -6.6628   -0.0444 C.2       1 <0>        -0.6781
     17 C13         0.4259   -5.6044   -0.0311 C.2       1 <0>         0.0866
     18 C14         0.9491   -4.2933   -0.0292 C.2       1 <0>         0.2044
     19 N3          0.3594   -3.1088   -0.0173 N.2       1 <0>        -0.4112
     20 S1          0.6463   -8.3074   -0.0476 S.o2      1 <0>         2.7039
     21 O2          1.4257   -9.0441    0.8847 O.2       1 <0>        -0.9382
     22 O3         -0.7667   -8.1995    0.0577 O.2       1 <0>        -0.9379
     23 N4          0.9618   -8.9504   -1.5408 N.pl3     1 <0>        -1.1172
     24 C15         2.3466   -9.1652   -1.9680 C.3       1 <0>         0.1163
     25 C16         2.3666  -10.0902   -3.1866 C.3       1 <0>        -0.1604
     26 C17         3.8128  -10.3145   -3.6328 C.3       1 <0>        -0.0097
     27 N5          3.8321  -11.2026   -4.8029 N.4       1 <0>        -0.3854
     28 C18         3.3345  -12.5306   -4.4183 C.3       1 <0>        -0.0502
     29 C19         3.3554  -13.4539   -5.6390 C.3       1 <0>         0.0359
     30 O4          4.6871  -13.5214   -6.1564 O.3       1 <0>        -0.3558
     31 C20         5.2254  -12.2481   -6.5234 C.3       1 <0>         0.0353
     32 C21         5.2080  -11.3226   -5.3043 C.3       1 <0>        -0.0436
     33 H2         -0.9621    1.8954    0.0259 H         1 <0>         0.1390
     34 H3          1.1347    3.1773    0.0083 H         1 <0>         0.1399
     35 H4          3.3019    2.0251   -0.0197 H         1 <0>         0.1460
     36 H5         -0.9239   -0.5599    0.0086 H         1 <0>         0.1432
     37 H6          4.2239   -5.0256   -0.0642 H         1 <0>         0.1705
     38 H7          3.3453   -7.2812   -0.0665 H         1 <0>         0.1597
     39 H8         -0.6420   -5.7651   -0.0218 H         1 <0>         0.1816
     40 H9          0.2298   -9.1847   -2.1325 H         1 <0>         0.4249
     41 H10         2.7984   -8.2086   -2.2305 H         1 <0>         0.0786
     42 H11         2.9107   -9.6227   -1.1553 H         1 <0>         0.0951
     43 H12         1.9148  -11.0468   -2.9242 H         1 <0>         0.1001
     44 H13         1.8025   -9.6327   -3.9993 H         1 <0>         0.0984
     45 H14         4.2647   -9.3579   -3.8953 H         1 <0>         0.1375
     46 H15         4.3770  -10.7721   -2.8201 H         1 <0>         0.1376
     47 H16         3.9719  -12.9456   -3.6375 H         1 <0>         0.1416
     48 H17         2.3138  -12.4427   -4.0462 H         1 <0>         0.1442
     49 H18         3.0274  -14.4514   -5.3466 H         1 <0>         0.1429
     50 H19         2.6869  -13.0601   -6.4046 H         1 <0>         0.0815
     51 H20         6.2509  -12.3730   -6.8711 H         1 <0>         0.1428
     52 H21         4.6210  -11.8131   -7.3193 H         1 <0>         0.0815
     53 H22         5.5781  -10.3379   -5.5900 H         1 <0>         0.1434
     54 H23         5.8448  -11.7381   -4.5233 H         1 <0>         0.1406
     55 H24         3.2426  -10.8188   -5.5263 H         1 <0>         0.4237
@<TRIPOS>BOND
     1    1    6 ar
     2    1    2 ar
     3    1   33 1
     4    2    3 ar
     5    2   34 1
     6    3    4 ar
     7    3   35 1
     8    4   11 1
     9    4    5 ar
    10    5    6 ar
    11    5    7 1
    12    6   36 1
    13    7   19 1
    14    7    8 2
    15    8    9 1
    16    8   13 1
    17    9   10 1
    18    9   11 am
    19   11   12 2
    20   13   18 1
    21   13   14 1
    22   14   15 2
    23   14   37 1
    24   15   16 1
    25   15   38 1
    26   16   17 2
    27   16   20 1
    28   17   18 1
    29   17   39 1
    30   18   19 2
    31   20   21 2
    32   20   22 2
    33   20   23 1
    34   23   24 1
    35   23   40 1
    36   24   25 1
    37   24   41 1
    38   24   42 1
    39   25   26 1
    40   25   43 1
    41   25   44 1
    42   26   27 1
    43   26   45 1
    44   26   46 1
    45   27   32 1
    46   27   28 1
    47   27   55 1
    48   28   29 1
    49   28   47 1
    50   28   48 1
    51   29   30 1
    52   29   49 1
    53   29   50 1
    54   30   31 1
    55   31   32 1
    56   31   51 1
    57   31   52 1
    58   32   53 1
    59   32   54 1
@<TRIPOS>MOLECULE
CHEMBL338790
   24    26     0     0     0
SMALL
USER_CHARGES

@<TRIPOS>ATOM
      1 C1         -0.0167    1.3836    0.0096 C.ar      1 <0>        -0.1545
      2 C2          1.1494    2.1166    0.0025 C.ar      1 <0>        -0.0378
      3 C3          2.3884    1.4612   -0.0129 C.ar      1 <0>        -0.1296
      4 C4          3.6127    2.1710   -0.0212 C.ar      1 <0>         0.2946
      5 C5          4.8117    1.4736   -0.0368 C.ar      1 <0>        -0.2468
      6 C6          4.8395    0.0909   -0.0449 C.ar      1 <0>         0.0561
      7 C7          3.6531   -0.6368   -0.0370 C.ar      1 <0>        -0.2386
      8 C8          2.4177    0.0524   -0.0207 C.ar      1 <0>         0.0589
      9 C9          1.2120   -0.6850   -0.0126 C.ar      1 <0>        -0.1744
     10 C10         0.0021   -0.0041    0.0020 C.ar      1 <0>         0.0060
     11 C11         1.2825   -2.1529   -0.0216 C.2       1 <0>         0.5742
     12 O1          0.2576   -2.8080   -0.0150 O.2       1 <0>        -0.5007
     13 N1          2.4758   -2.7763   -0.0376 N.am      1 <0>        -0.6681
     14 C12         3.6414   -2.1031   -0.0452 C.2       1 <0>         0.5771
     15 O2          4.6928   -2.7156   -0.0597 O.2       1 <0>        -0.5072
     16 N2          3.6137    3.5532   -0.0143 N.pl3     1 <0>        -0.8443
     17 H1         -0.9654    1.8995    0.0260 H         1 <0>         0.1398
     18 H2          1.1091    3.1958    0.0082 H         1 <0>         0.1323
     19 H3          5.7424    2.0215   -0.0431 H         1 <0>         0.1370
     20 H4          5.7871   -0.4270   -0.0578 H         1 <0>         0.1449
     21 H5         -0.9265   -0.5556    0.0082 H         1 <0>         0.1463
     22 H6          2.4963   -3.7461   -0.0433 H         1 <0>         0.4185
     23 H7          2.7741    4.0387   -0.0037 H         1 <0>         0.4050
     24 H8          4.4541    4.0376   -0.0201 H         1 <0>         0.4111
@<TRIPOS>BOND
     1    1   10 ar
     2    1    2 ar
     3    1   17 1
     4    2    3 ar
     5    2   18 1
     6    3    8 ar
     7    3    4 ar
     8    4    5 ar
     9    4   16 1
    10    5    6 ar
    11    5   19 1
    12    6    7 ar
    13    6   20 1
    14    7   14 1
    15    7    8 ar
    16    8    9 ar
    17    9   10 ar
    18    9   11 1
    19   10   21 1
    20   11   12 2
    21   11   13 am
    22   13   14 am
    23   13   22 1
    24   14   15 2
    25   16   23 1
    26   16   24 1
@<TRIPOS>MOLECULE
CHEMBL494875
   58    62     0     0     0
SMALL
USER_CHARGES

@<TRIPOS>ATOM
      1 C1          5.5135   -0.7724   -1.9493 C.ar      1 <0>        -0.0871
      2 C2          6.6368   -1.2342   -2.6234 C.ar      1 <0>        -0.1101
      3 C3          6.7931   -2.5761   -2.8929 C.ar      1 <0>        -0.0542
      4 C4          5.8102   -3.4756   -2.4820 C.ar      1 <0>        -0.1251
      5 C5          4.6688   -3.0018   -1.7958 C.ar      1 <0>        -0.0603
      6 C6          4.5375   -1.6361   -1.5371 C.ar      1 <0>        -0.0979
      7 C7          3.6534   -3.9681   -1.3769 C.2       1 <0>         0.1353
      8 N1          3.8119   -5.2317   -1.6369 N.2       1 <0>        -0.2201
      9 N2          4.9274   -5.7280   -2.3120 N.am      1 <0>        -0.5331
     10 H1          4.9929   -6.6813   -2.4787 H         1 <0>         0.4375
     11 C8          5.9177   -4.9170   -2.7392 C.2       1 <0>         0.5282
     12 O1          6.8825   -5.3722   -3.3271 O.2       1 <0>        -0.5191
     13 C9          2.4236   -3.4985   -0.6433 C.3       1 <0>        -0.0164
     14 C10         1.5443   -4.6811   -0.3283 C.ar      1 <0>        -0.0895
     15 C11         0.5762   -5.0818   -1.2335 C.ar      1 <0>        -0.0521
     16 C12        -0.2352   -6.1650   -0.9540 C.ar      1 <0>        -0.1514
     17 C13        -0.0843   -6.8571    0.2341 C.ar      1 <0>         0.1472
     18 C14         0.8921   -6.4571    1.1515 C.ar      1 <0>        -0.1603
     19 C15         1.7103   -5.3640    0.8577 C.ar      1 <0>        -0.0495
     20 C16         1.0605   -7.1896    2.4229 C.2       1 <0>         0.5657
     21 O2          1.2438   -8.3914    2.4123 O.2       1 <0>        -0.5103
     22 N3          1.0108   -6.5258    3.5948 N.am      1 <0>        -0.5944
     23 C17         1.2892   -7.1753    4.8277 C.3       1 <0>         0.1166
     24 C18         0.0747   -7.9377    5.4512 C.3       1 <0>        -0.1489
     25 C19        -1.2021   -7.0758    5.1827 C.3       1 <0>         0.1139
     26 N4         -1.0025   -5.6728    5.2884 N.am      1 <0>        -0.5973
     27 C20        -0.7387   -4.9312    4.0286 C.3       1 <0>         0.0878
     28 C21         0.6687   -5.0814    3.6541 C.3       1 <0>         0.0796
     29 C22        -1.0508   -5.0428    6.4789 C.2       1 <0>         0.5464
     30 O3         -1.2686   -5.6747    7.4910 O.2       1 <0>        -0.5296
     31 C23        -0.8342   -3.5533    6.5525 C.3       1 <0>        -0.1990
     32 C24         0.4465   -3.0581    7.2274 C.3       1 <0>        -0.1510
     33 C25        -0.9015   -2.8970    7.9330 C.3       1 <0>        -0.1463
     34 F1         -0.8779   -7.9158    0.5073 F         1 <0>        -0.1249
     35 H2          5.4120    0.2830   -1.7441 H         1 <0>         0.1369
     36 H3          7.3955   -0.5337   -2.9398 H         1 <0>         0.1377
     37 H4          7.6687   -2.9281   -3.4181 H         1 <0>         0.1436
     38 H5          3.6689   -1.2638   -1.0142 H         1 <0>         0.1420
     39 H6          2.7189   -3.0080    0.2842 H         1 <0>         0.1092
     40 H7          1.8747   -2.7939   -1.2681 H         1 <0>         0.1115
     41 H8          0.4543   -4.5447   -2.1625 H         1 <0>         0.1379
     42 H9         -0.9888   -6.4715   -1.6644 H         1 <0>         0.1441
     43 H10         2.4690   -5.0519    1.5601 H         1 <0>         0.1370
     44 H11         2.0983   -7.8878    4.6674 H         1 <0>         0.0732
     45 H12         1.6305   -6.4266    5.5427 H         1 <0>         0.0723
     46 H13        -0.0315   -8.9148    4.9799 H         1 <0>         0.0814
     47 H14         0.2228   -8.0567    6.5245 H         1 <0>         0.0801
     48 H15        -1.5635   -7.2981    4.1787 H         1 <0>         0.0701
     49 H16        -1.9727   -7.3693    5.8955 H         1 <0>         0.0736
     50 H17        -1.3710   -5.3285    3.2346 H         1 <0>         0.0830
     51 H18        -0.9627   -3.8747    4.1757 H         1 <0>         0.1008
     52 H19         1.2975   -4.5898    4.3963 H         1 <0>         0.0888
     53 H20         0.8387   -4.6279    2.6776 H         1 <0>         0.1033
     54 H21        -1.2101   -2.9811    5.7044 H         1 <0>         0.1252
     55 H22         1.1325   -3.8097    7.6182 H         1 <0>         0.0987
     56 H23         0.9135   -2.1600    6.8232 H         1 <0>         0.1063
     57 H24        -1.3213   -1.8929    7.9930 H         1 <0>         0.1049
     58 H25        -1.1024   -3.5426    8.7880 H         1 <0>         0.1082
@<TRIPOS>BOND
     1    1    6 ar
     2    1    2 ar
     3    1   35 1
     4    2    3 ar
     5    2   36 1
     6    3    4 ar
     7    3   37 1
     8    4   11 1
     9    4    5 ar
    10    5    6 ar
    11    5    7 1
    12    6   38 1
    13    7    8 2
    14    7   13 1
    15    8    9 1
    16    9   10 1
    17    9   11 am
    18   11   12 2
    19   13   14 1
    20   13   39 1
    21   13   40 1
    22   14   19 ar
    23   14   15 ar
    24   15   16 ar
    25   15   41 1
    26   16   17 ar
    27   16   42 1
    28   17   18 ar
    29   17   34 1
    30   18   19 ar
    31   18   20 1
    32   19   43 1
    33   20   21 2
    34   20   22 am
    35   22   28 1
    36   22   23 1
    37   23   24 1
    38   23   44 1
    39   23   45 1
    40   24   25 1
    41   24   46 1
    42   24   47 1
    43   25   26 1
    44   25   48 1
    45   25   49 1
    46   26   27 1
    47   26   29 am
    48   27   28 1
    49   27   50 1
    50   27   51 1
    51   28   52 1
    52   28   53 1
    53   29   30 2
    54   29   31 1
    55   31   33 1
    56   31   32 1
    57   31   54 1
    58   32   33 1
    59   32   55 1
    60   32   56 1
    61   33   57 1
    62   33   58 1
@<TRIPOS>MOLECULE
CHEMBL84886
   48    51     0     0     0
SMALL
USER_CHARGES

@<TRIPOS>ATOM
      1 C1         -0.0165    1.3631    0.0095 C.ar      1 <0>        -0.0772
      2 C2          1.1649    2.0935    0.0022 C.ar      1 <0>        -0.1247
      3 C3          2.3791    1.4638   -0.0123 C.ar      1 <0>        -0.0483
      4 C4          2.4269    0.0700   -0.0198 C.ar      1 <0>        -0.1469
      5 C5          1.2279   -0.6733   -0.0132 C.ar      1 <0>        -0.0062
      6 C6          0.0021   -0.0041    0.0020 C.ar      1 <0>        -0.1238
      7 C7          1.2981   -2.1430   -0.0228 C.2       1 <0>        -0.1273
      8 C8          2.4957   -2.7406   -0.0443 C.2       1 <0>         0.1053
      9 N1          3.6624   -2.0110   -0.0416 N.am      1 <0>        -0.6350
     10 C9          3.6937   -0.6686   -0.0330 C.2       1 <0>         0.5537
     11 O1          4.7568   -0.0742   -0.0366 O.2       1 <0>        -0.5131
     12 C10         2.6455   -4.2441   -0.0911 C.3       1 <0>         0.1400
     13 N2          1.3569   -4.8871    0.1785 N.am      1 <0>        -0.5858
     14 C11         0.1733   -4.3267   -0.4961 C.3       1 <0>         0.1073
     15 C12        -0.0062   -2.8954    0.0061 C.3       1 <0>        -0.0832
     16 C13         1.2588   -5.9454    1.0073 C.2       1 <0>         0.5110
     17 O2          0.1786   -6.4574    1.2117 O.2       1 <0>        -0.5179
     18 C14         2.4914   -6.4925    1.6799 C.3       1 <0>        -0.0358
     19 N3          2.1214   -7.6358    2.5250 N.4       1 <0>        -0.3689
     20 C15         1.2473   -7.1768    3.6112 C.3       1 <0>        -0.0193
     21 C16         0.7935   -8.3757    4.4468 C.3       1 <0>        -0.1417
     22 C17         2.0220   -9.0731    5.0381 C.3       1 <0>        -0.1404
     23 C18         2.9621   -9.4814    3.9002 C.3       1 <0>        -0.1451
     24 C19         3.3355   -8.2416    3.0848 C.3       1 <0>        -0.0075
     25 H1         -0.9632    1.8825    0.0259 H         1 <0>         0.1342
     26 H2          1.1243    3.1728    0.0076 H         1 <0>         0.1362
     27 H3          3.2922    2.0405   -0.0183 H         1 <0>         0.1416
     28 H4         -0.9229   -0.5615    0.0081 H         1 <0>         0.1358
     29 H5          2.9984   -4.5416   -1.0785 H         1 <0>         0.1108
     30 H6          3.3705   -4.5586    0.6597 H         1 <0>         0.1004
     31 H7          0.3288   -4.3237   -1.5749 H         1 <0>         0.0940
     32 H8         -0.7081   -4.9187   -0.2498 H         1 <0>         0.1127
     33 H9         -0.3823   -2.9198    1.0289 H         1 <0>         0.0866
     34 H10        -0.7293   -2.3821   -0.6277 H         1 <0>         0.1020
     35 H11         3.2052   -6.8164    0.9225 H         1 <0>         0.1617
     36 H12         2.9436   -5.7160    2.2969 H         1 <0>         0.1589
     37 H13         1.7929   -6.4781    4.2454 H         1 <0>         0.1243
     38 H14         0.3751   -6.6779    3.1888 H         1 <0>         0.1463
     39 H15         0.1461   -8.0327    5.2538 H         1 <0>         0.1121
     40 H16         0.2476   -9.0750    3.8136 H         1 <0>         0.0891
     41 H17         2.5399   -8.3902    5.7116 H         1 <0>         0.0816
     42 H18         1.7080   -9.9606    5.5877 H         1 <0>         0.0951
     43 H19         3.8647   -9.9287    4.3166 H         1 <0>         0.1145
     44 H20         2.4611  -10.2036    3.2557 H         1 <0>         0.0892
     45 H21         4.0050   -8.5286    2.2739 H         1 <0>         0.1320
     46 H22         3.8366   -7.5201    3.7303 H         1 <0>         0.1305
     47 H23         4.5053   -2.4909   -0.0458 H         1 <0>         0.4116
     48 H24         1.6316   -8.3198    1.9680 H         1 <0>         0.4297
@<TRIPOS>BOND
     1    1    6 ar
     2    1    2 ar
     3    1   25 1
     4    2    3 ar
     5    2   26 1
     6    3    4 ar
     7    3   27 1
     8    4   10 1
     9    4    5 ar
    10    5    6 ar
    11    5    7 1
    12    6   28 1
    13    7   15 1
    14    7    8 2
    15    8    9 1
    16    8   12 1
    17    9   10 am
    18    9   47 1
    19   10   11 2
    20   12   13 1
    21   12   29 1
    22   12   30 1
    23   13   14 1
    24   13   16 am
    25   14   15 1
    26   14   31 1
    27   14   32 1
    28   15   33 1
    29   15   34 1
    30   16   17 2
    31   16   18 1
    32   18   19 1
    33   18   35 1
    34   18   36 1
    35   19   24 1
    36   19   20 1
    37   19   48 1
    38   20   21 1
    39   20   37 1
    40   20   38 1
    41   21   22 1
    42   21   39 1
    43   21   40 1
    44   22   23 1
    45   22   41 1
    46   22   42 1
    47   23   24 1
    48   23   43 1
    49   23   44 1
    50   24   45 1
    51   24   46 1
@<TRIPOS>MOLECULE
CHEMBL539660
   38    40     0     0     0
SMALL
USER_CHARGES

@<TRIPOS>ATOM
      1 C1         -0.0178    1.4648    0.0101 C.3       1 <0>        -0.0529
      2 N1          0.0021   -0.0041    0.0020 N.4       1 <0>        -0.3869
      3 C2         -1.3761   -0.5125    0.0124 C.3       1 <0>        -0.0475
      4 C3          0.6897   -0.4778   -1.2066 C.3       1 <0>         0.0497
      5 C4          2.1367   -0.0597   -1.1578 C.ar      1 <0>        -0.1788
      6 C5          2.5163    1.1586   -1.6905 C.ar      1 <0>        -0.0723
      7 C6          3.8430    1.5550   -1.6414 C.ar      1 <0>        -0.1408
      8 C7          4.7784    0.7260   -1.0639 C.ar      1 <0>         0.2241
      9 C8          4.4034   -0.5186   -0.5356 C.ar      1 <0>         0.1091
     10 C9          3.0724   -0.8957   -0.5755 C.ar      1 <0>        -0.0983
     11 N2          5.3843   -1.3605    0.0018 N.am      1 <0>        -0.6633
     12 C10         6.6027   -0.9022    0.3635 C.2       1 <0>         0.5101
     13 O1          7.4274   -1.6636    0.8233 O.2       1 <0>        -0.4975
     14 C11         6.9335    0.5573    0.1932 C.3       1 <0>         0.1245
     15 N3          6.1309    1.0526   -0.9483 N.pl3     1 <0>        -0.6366
     16 C12         6.9951    1.7916   -1.8659 C.3       1 <0>         0.1195
     17 C13         8.3220    2.0290   -1.1016 C.3       1 <0>        -0.1313
     18 C14         8.4052    0.7645   -0.2001 C.3       1 <0>        -0.1156
     19 H1          1.0047    1.8421    0.0024 H         1 <0>         0.1245
     20 H2         -0.5450    1.8259   -0.8730 H         1 <0>         0.1218
     21 H3         -0.5280    1.8163    0.9069 H         1 <0>         0.1223
     22 H4         -1.9033   -0.1515   -0.8706 H         1 <0>         0.1222
     23 H5         -1.3613   -1.6024    0.0065 H         1 <0>         0.1227
     24 H6         -1.8863   -0.1610    0.9092 H         1 <0>         0.1235
     25 H7          0.6270   -1.5648   -1.2578 H         1 <0>         0.1344
     26 H8          0.2158   -0.0447   -2.0875 H         1 <0>         0.1355
     27 H9          1.7776    1.8022   -2.1451 H         1 <0>         0.1362
     28 H10         4.1414    2.5075   -2.0537 H         1 <0>         0.1412
     29 H11         2.7655   -1.8426   -0.1565 H         1 <0>         0.1359
     30 H12         5.1828   -2.3021    0.1185 H         1 <0>         0.4130
     31 H13         6.7025    1.1081    1.1050 H         1 <0>         0.1117
     32 H14         7.1793    1.2030   -2.7647 H         1 <0>         0.0671
     33 H15         6.5366    2.7452   -2.1279 H         1 <0>         0.0767
     34 H16         9.1657    2.0725   -1.7904 H         1 <0>         0.0968
     35 H17         8.2670    2.9349   -0.4978 H         1 <0>         0.0856
     36 H18         9.0207    0.9531    0.6796 H         1 <0>         0.1008
     37 H19         8.7824   -0.0902   -0.7617 H         1 <0>         0.0871
     38 H20         0.4901   -0.3383    0.8195 H         1 <0>         0.4255
@<TRIPOS>BOND
     1    1    2 1
     2    1   19 1
     3    1   20 1
     4    1   21 1
     5    2    3 1
     6    2    4 1
     7    2   38 1
     8    3   22 1
     9    3   23 1
    10    3   24 1
    11    4    5 1
    12    4   25 1
    13    4   26 1
    14    5   10 ar
    15    5    6 ar
    16    6    7 ar
    17    6   27 1
    18    7    8 ar
    19    7   28 1
    20    8   15 1
    21    8    9 ar
    22    9   10 ar
    23    9   11 1
    24   10   29 1
    25   11   12 am
    26   11   30 1
    27   12   13 2
    28   12   14 1
    29   14   18 1
    30   14   15 1
    31   14   31 1
    32   15   16 1
    33   16   17 1
    34   16   32 1
    35   16   33 1
    36   17   18 1
    37   17   34 1
    38   17   35 1
    39   18   36 1
    40   18   37 1
@<TRIPOS>MOLECULE
CHEMBL539660__1
   38    40     0     0     0
SMALL
USER_CHARGES

@<TRIPOS>ATOM
      1 C1         -0.0178    1.4648    0.0101 C.3       1 <0>        -0.0529
      2 N1          0.0021   -0.0041    0.0020 N.4       1 <0>        -0.3870
      3 C2         -1.3761   -0.5125    0.0124 C.3       1 <0>        -0.0476
      4 C3          0.6897   -0.4778   -1.2066 C.3       1 <0>         0.0498
      5 C4          2.1367   -0.0597   -1.1578 C.ar      1 <0>        -0.1789
      6 C5          2.5163    1.1586   -1.6905 C.ar      1 <0>        -0.0723
      7 C6          3.8458    1.5470   -1.6576 C.ar      1 <0>        -0.1403
      8 C7          4.7827    0.7140   -1.0881 C.ar      1 <0>         0.2243
      9 C8          4.4027   -0.5169   -0.5321 C.ar      1 <0>         0.1086
     10 C9          3.0724   -0.8957   -0.5755 C.ar      1 <0>        -0.0982
     11 N2          5.3700   -1.3207    0.0828 N.am      1 <0>        -0.6634
     12 C10         6.6915   -1.1501   -0.1406 C.2       1 <0>         0.5111
     13 O1          7.4996   -1.8658    0.4127 O.2       1 <0>        -0.4976
     14 C11         7.1577   -0.0685   -1.0794 C.3       1 <0>         0.1236
     15 N3          6.1456    1.0114   -1.0321 N.pl3     1 <0>        -0.6368
     16 C12         6.8143    2.2962   -0.8396 C.3       1 <0>         0.1204
     17 C13         8.3204    2.0336   -1.0924 C.3       1 <0>        -0.1317
     18 C14         8.4770    0.5642   -0.6074 C.3       1 <0>        -0.1150
     19 H1          1.0047    1.8421    0.0024 H         1 <0>         0.1243
     20 H2         -0.5450    1.8259   -0.8730 H         1 <0>         0.1219
     21 H3         -0.5280    1.8163    0.9069 H         1 <0>         0.1223
     22 H4         -1.9033   -0.1515   -0.8706 H         1 <0>         0.1223
     23 H5         -1.3613   -1.6024    0.0065 H         1 <0>         0.1228
     24 H6         -1.8863   -0.1610    0.9092 H         1 <0>         0.1235
     25 H7          0.6270   -1.5648   -1.2578 H         1 <0>         0.1346
     26 H8          0.2158   -0.0447   -2.0875 H         1 <0>         0.1356
     27 H9          1.7754    1.8084   -2.1325 H         1 <0>         0.1361
     28 H10         4.1454    2.4965   -2.0760 H         1 <0>         0.1413
     29 H11         2.7660   -1.8439   -0.1592 H         1 <0>         0.1361
     30 H12         5.0825   -2.0217    0.6884 H         1 <0>         0.4122
     31 H13         7.2653   -0.4629   -2.0899 H         1 <0>         0.1127
     32 H14         6.4354    3.0276   -1.5535 H         1 <0>         0.0764
     33 H15         6.6606    2.6507    0.1796 H         1 <0>         0.0661
     34 H16         8.5585    2.1213   -2.1524 H         1 <0>         0.0861
     35 H17         8.9382    2.7075   -0.4989 H         1 <0>         0.0967
     36 H18         8.5640    0.5194    0.4782 H         1 <0>         0.0867
     37 H19         9.3316    0.0852   -1.0853 H         1 <0>         0.1010
     38 H20         0.4901   -0.3383    0.8195 H         1 <0>         0.4254
@<TRIPOS>BOND
     1    1    2 1
     2    1   19 1
     3    1   20 1
     4    1   21 1
     5    2    3 1
     6    2    4 1
     7    2   38 1
     8    3   22 1
     9    3   23 1
    10    3   24 1
    11    4    5 1
    12    4   25 1
    13    4   26 1
    14    5   10 ar
    15    5    6 ar
    16    6    7 ar
    17    6   27 1
    18    7    8 ar
    19    7   28 1
    20    8   15 1
    21    8    9 ar
    22    9   10 ar
    23    9   11 1
    24   10   29 1
    25   11   12 am
    26   11   30 1
    27   12   13 2
    28   12   14 1
    29   14   18 1
    30   14   15 1
    31   14   31 1
    32   15   16 1
    33   16   17 1
    34   16   32 1
    35   16   33 1
    36   17   18 1
    37   17   34 1
    38   17   35 1
    39   18   36 1
    40   18   37 1
@<TRIPOS>MOLECULE
CHEMBL479471
   39    42     0     0     0
SMALL
USER_CHARGES

@<TRIPOS>ATOM
      1 C1         -0.0167    1.3781    0.0096 C.ar      1 <0>        -0.1211
      2 C2          1.1709    2.0855    0.0021 C.ar      1 <0>        -0.1184
      3 C3          2.3773    1.4107   -0.0130 C.ar      1 <0>        -0.1169
      4 C4          2.3960    0.0285   -0.0201 C.ar      1 <0>        -0.0859
      5 C5          1.2084   -0.6789   -0.0117 C.ar      1 <0>        -0.1124
      6 C6          0.0021   -0.0041    0.0020 C.ar      1 <0>        -0.1168
      7 C7          3.7112   -0.7071   -0.0376 C.3       1 <0>        -0.0735
      8 C8          4.1714   -0.9633    1.3989 C.3       1 <0>        -0.0370
      9 C9          5.4865   -1.6989    1.3815 C.2       1 <0>         0.2937
     10 N1          5.6166   -2.9933    1.3680 N.2       1 <0>        -0.4794
     11 C10         6.9359   -3.3162    1.3547 C.ar      1 <0>         0.0396
     12 C11         7.6300   -4.5264    1.4403 C.ar      1 <0>        -0.0308
     13 C12         9.0083   -4.5304    1.4175 C.ar      1 <0>        -0.1381
     14 C13         9.7180   -3.3530    1.2800 C.ar      1 <0>        -0.0326
     15 C14         9.0501   -2.1293    1.1755 C.ar      1 <0>        -0.1287
     16 C15         7.6528   -2.1130    1.2730 C.ar      1 <0>         0.0761
     17 N2          6.7101   -1.1069    1.3716 N.pl3     1 <0>        -0.4854
     18 C16         7.0212    0.2990    1.4799 C.3       1 <0>         0.0825
     19 C17         8.3322    0.5558    2.1812 C.3       1 <0>         0.0947
     20 N3          9.4858    0.3210    1.3456 N.am      1 <0>        -0.7184
     21 C18         9.8236   -0.9083    0.9306 C.2       1 <0>         0.5617
     22 O1         10.8486   -1.0131    0.2850 O.2       1 <0>        -0.5348
     23 H1         -0.9591    1.9053    0.0259 H         1 <0>         0.1221
     24 H2          1.1563    3.1654    0.0076 H         1 <0>         0.1223
     25 H3          3.3051    1.9634   -0.0196 H         1 <0>         0.1199
     26 H4          1.2231   -1.7588   -0.0176 H         1 <0>         0.1246
     27 H5         -0.9258   -0.5567    0.0082 H         1 <0>         0.1234
     28 H6          3.5884   -1.6586   -0.5549 H         1 <0>         0.0840
     29 H7          4.4573   -0.1052   -0.5563 H         1 <0>         0.0723
     30 H8          4.2941   -0.0118    1.9163 H         1 <0>         0.0872
     31 H9          3.4252   -1.5652    1.9176 H         1 <0>         0.1062
     32 H10         7.0875   -5.4565    1.5245 H         1 <0>         0.1381
     33 H11         9.5402   -5.4659    1.5087 H         1 <0>         0.1411
     34 H12        10.7974   -3.3782    1.2533 H         1 <0>         0.1419
     35 H13         7.0686    0.7267    0.4784 H         1 <0>         0.0859
     36 H14         6.2235    0.7939    2.0337 H         1 <0>         0.1095
     37 H15         8.3505    1.5919    2.5190 H         1 <0>         0.1136
     38 H16         8.3947   -0.0944    3.0537 H         1 <0>         0.0788
     39 H17        10.0372    1.0755    1.0854 H         1 <0>         0.4109
@<TRIPOS>BOND
     1    1    6 ar
     2    1    2 ar
     3    1   23 1
     4    2    3 ar
     5    2   24 1
     6    3    4 ar
     7    3   25 1
     8    4    5 ar
     9    4    7 1
    10    5    6 ar
    11    5   26 1
    12    6   27 1
    13    7    8 1
    14    7   28 1
    15    7   29 1
    16    8    9 1
    17    8   30 1
    18    8   31 1
    19    9   17 1
    20    9   10 2
    21   10   11 1
    22   11   16 ar
    23   11   12 ar
    24   12   13 ar
    25   12   32 1
    26   13   14 ar
    27   13   33 1
    28   14   15 ar
    29   14   34 1
    30   15   21 1
    31   15   16 ar
    32   16   17 1
    33   17   18 1
    34   18   19 1
    35   18   35 1
    36   18   36 1
    37   19   20 1
    38   19   37 1
    39   19   38 1
    40   20   21 am
    41   20   39 1
    42   21   22 2
@<TRIPOS>MOLECULE
CHEMBL480452
   49    52     0     0     0
SMALL
USER_CHARGES

@<TRIPOS>ATOM
      1 C1         -0.0187    1.5258    0.0104 C.3       1 <0>        -0.1537
      2 C2          0.0021   -0.0041    0.0020 C.3       1 <0>         0.0533
      3 O1         -1.3386   -0.4987    0.0122 O.3       1 <0>        -0.3136
      4 C3         -1.4983   -1.8483    0.0064 C.ar      1 <0>         0.1813
      5 C4         -0.3843   -2.6773   -0.0029 C.ar      1 <0>        -0.2491
      6 C5         -0.5400   -4.0479   -0.0087 C.ar      1 <0>        -0.0224
      7 C6         -1.8176   -4.6036   -0.0048 C.ar      1 <0>        -0.1050
      8 C7         -2.9390   -3.7681    0.0050 C.ar      1 <0>         0.2046
      9 C8         -2.7736   -2.3937    0.0157 C.ar      1 <0>        -0.2529
     10 O2         -4.1876   -4.3040    0.0088 O.3       1 <0>        -0.2656
     11 C9         -5.2859   -3.3898    0.0189 C.3       1 <0>         0.0466
     12 C10        -6.6007   -4.1722    0.0219 C.3       1 <0>        -0.1467
     13 C11        -1.9879   -6.0770   -0.0116 C.2       1 <0>         0.1305
     14 C12        -0.8921   -6.8989   -0.0165 C.2       1 <0>        -0.1892
     15 S1         -1.6796   -8.5042   -0.0233 S.3       1 <0>        -0.0994
     16 C13        -3.3701   -7.9236   -0.0190 C.2       1 <0>         0.3041
     17 N1         -3.1975   -6.6076   -0.0074 N.2       1 <0>        -0.4502
     18 N2         -4.5252   -8.6394   -0.0217 N.2       1 <0>        -0.4288
     19 C14        -4.4844   -9.9482   -0.0278 C.2       1 <0>         0.2768
     20 C15        -5.7286  -10.7192   -0.0307 C.2       1 <0>        -0.1847
     21 C16        -5.8476  -12.0802   -0.0310 C.2       1 <0>         0.1321
     22 N3         -7.1600  -12.4246   -0.0335 N.pl3     1 <0>        -0.5752
     23 H1         -7.4931  -13.3356   -0.0339 H         1 <0>         0.4235
     24 C17        -7.9540  -11.2962   -0.0349 C.ar      1 <0>         0.0801
     25 C18        -7.1018  -10.1801   -0.0273 C.ar      1 <0>        -0.0670
     26 C19        -7.6353   -8.8943   -0.0213 C.ar      1 <0>        -0.0613
     27 C20        -9.0027   -8.7228   -0.0196 C.ar      1 <0>        -0.1380
     28 C21        -9.8460   -9.8241   -0.0232 C.ar      1 <0>        -0.0976
     29 C22        -9.3313  -11.1025   -0.0375 C.ar      1 <0>        -0.1268
     30 H2          1.0039    1.9031    0.0027 H         1 <0>         0.0800
     31 H3         -0.5459    1.8868   -0.8726 H         1 <0>         0.0668
     32 H4         -0.5289    1.8773    0.9072 H         1 <0>         0.0668
     33 H5          0.5123   -0.3556   -0.8948 H         1 <0>         0.0648
     34 H6          0.5293   -0.3651    0.8851 H         1 <0>         0.0647
     35 H7          0.6066   -2.2478   -0.0059 H         1 <0>         0.1333
     36 H8          0.3283   -4.6901   -0.0166 H         1 <0>         0.1346
     37 H9         -3.6377   -1.7460    0.0274 H         1 <0>         0.1389
     38 H10        -5.2318   -2.7668    0.9117 H         1 <0>         0.0600
     39 H11        -5.2410   -2.7581   -0.8683 H         1 <0>         0.0601
     40 H12        -7.4384   -3.4749    0.0296 H         1 <0>         0.0745
     41 H13        -6.6548   -4.7953   -0.8709 H         1 <0>         0.0672
     42 H14        -6.6456   -4.8039    0.9090 H         1 <0>         0.0671
     43 H15         0.1581   -6.6468   -0.0163 H         1 <0>         0.1971
     44 H16        -3.5328  -10.4588   -0.0308 H         1 <0>         0.1187
     45 H17        -5.0220  -12.7765   -0.0300 H         1 <0>         0.1869
     46 H18        -6.9807   -8.0352   -0.0177 H         1 <0>         0.1382
     47 H19        -9.4195   -7.7265   -0.0149 H         1 <0>         0.1255
     48 H20       -10.9161   -9.6783   -0.0215 H         1 <0>         0.1272
     49 H21        -9.9968  -11.9531   -0.0388 H         1 <0>         0.1219
@<TRIPOS>BOND
     1    1    2 1
     2    1   30 1
     3    1   31 1
     4    1   32 1
     5    2    3 1
     6    2   33 1
     7    2   34 1
     8    3    4 1
     9    4    9 ar
    10    4    5 ar
    11    5    6 ar
    12    5   35 1
    13    6    7 ar
    14    6   36 1
    15    7    8 ar
    16    7   13 1
    17    8    9 ar
    18    8   10 1
    19    9   37 1
    20   10   11 1
    21   11   12 1
    22   11   38 1
    23   11   39 1
    24   12   40 1
    25   12   41 1
    26   12   42 1
    27   13   17 1
    28   13   14 2
    29   14   15 1
    30   14   43 1
    31   15   16 1
    32   16   17 2
    33   16   18 1
    34   18   19 2
    35   19   20 1
    36   19   44 1
    37   20   25 1
    38   20   21 2
    39   21   22 1
    40   21   45 1
    41   22   23 1
    42   22   24 1
    43   24   29 ar
    44   24   25 ar
    45   25   26 ar
    46   26   27 ar
    47   26   46 1
    48   27   28 ar
    49   27   47 1
    50   28   29 ar
    51   28   48 1
    52   29   49 1
@<TRIPOS>MOLECULE
CHEMBL583933
   38    41     0     0     0
SMALL
USER_CHARGES

@<TRIPOS>ATOM
      1 C1         -0.0184    1.5028    0.0103 C.3       1 <0>        -0.0600
      2 C2          0.0021   -0.0041    0.0020 C.2       1 <0>         0.2005
      3 N1         -1.0477   -0.7725    0.0027 N.2       1 <0>        -0.4759
      4 C3         -0.6358   -2.0663   -0.0062 C.2       1 <0>         0.0173
      5 C4          0.7208   -2.0562   -0.0125 C.2       1 <0>        -0.0511
      6 O1          1.1041   -0.7657   -0.0131 O.3       1 <0>        -0.1986
      7 C5         -1.5062   -3.2662   -0.0079 C.ar      1 <0>         0.0082
      8 C6         -0.9372   -4.5403   -0.0113 C.ar      1 <0>        -0.1079
      9 C7         -1.7445   -5.6551   -0.0124 C.ar      1 <0>        -0.0598
     10 C8         -3.1342   -5.5106   -0.0103 C.ar      1 <0>        -0.0307
     11 C9         -3.7029   -4.2345   -0.0069 C.ar      1 <0>        -0.0981
     12 C10        -2.8939   -3.1209   -0.0004 C.ar      1 <0>        -0.0894
     13 C11        -4.0015   -6.7063   -0.0120 C.2       1 <0>         0.3309
     14 N2         -5.3692   -6.6873   -0.0156 N.pl3     1 <0>        -0.5932
     15 H1         -5.9351   -5.8994   -0.0173 H         1 <0>         0.4256
     16 C12        -5.7924   -8.0033   -0.0170 C.ar      1 <0>         0.0402
     17 C13        -7.0389   -8.6111   -0.0204 C.ar      1 <0>        -0.0788
     18 C14        -7.1404   -9.9891   -0.0209 C.ar      1 <0>        -0.1129
     19 C15        -6.0063  -10.7798   -0.0179 C.ar      1 <0>        -0.0851
     20 C16        -4.7416  -10.1966   -0.0140 C.ar      1 <0>        -0.0908
     21 C17        -4.6263   -8.7889   -0.0139 C.ar      1 <0>         0.1064
     22 N3         -3.5765   -7.9487   -0.0160 N.2       1 <0>        -0.4536
     23 C18        -3.5341  -11.0409   -0.0108 C.2       1 <0>         0.5579
     24 O2         -2.4322  -10.5262   -0.0074 O.2       1 <0>        -0.5113
     25 N4         -3.6507  -12.3836   -0.0118 N.am      1 <0>        -0.8552
     26 H2          1.0042    1.8801    0.0026 H         1 <0>         0.0904
     27 H3         -0.5455    1.8639   -0.8728 H         1 <0>         0.0991
     28 H4         -0.5286    1.8543    0.9071 H         1 <0>         0.0992
     29 H5          1.3698   -2.9194   -0.0202 H         1 <0>         0.2209
     30 H6          0.1371   -4.6518   -0.0133 H         1 <0>         0.1337
     31 H7         -1.3039   -6.6411   -0.0153 H         1 <0>         0.1484
     32 H8         -4.7771   -4.1218   -0.0052 H         1 <0>         0.1247
     33 H9         -3.3334   -2.1344    0.0066 H         1 <0>         0.1392
     34 H10        -7.9331   -8.0054   -0.0224 H         1 <0>         0.1305
     35 H11        -8.1155  -10.4533   -0.0232 H         1 <0>         0.1402
     36 H12        -6.1017  -11.8556   -0.0183 H         1 <0>         0.1357
     37 H13        -4.5295  -12.7941   -0.0145 H         1 <0>         0.3985
     38 H14        -2.8557  -12.9395   -0.0097 H         1 <0>         0.4054
@<TRIPOS>BOND
     1    1    2 1
     2    1   26 1
     3    1   27 1
     4    1   28 1
     5    2    6 1
     6    2    3 2
     7    3    4 1
     8    4    5 2
     9    4    7 1
    10    5    6 1
    11    5   29 1
    12    7   12 ar
    13    7    8 ar
    14    8    9 ar
    15    8   30 1
    16    9   10 ar
    17    9   31 1
    18   10   11 ar
    19   10   13 1
    20   11   12 ar
    21   11   32 1
    22   12   33 1
    23   13   22 2
    24   13   14 1
    25   14   15 1
    26   14   16 1
    27   16   21 ar
    28   16   17 ar
    29   17   18 ar
    30   17   34 1
    31   18   19 ar
    32   18   35 1
    33   19   20 ar
    34   19   36 1
    35   20   21 ar
    36   20   23 1
    37   21   22 1
    38   23   24 2
    39   23   25 am
    40   25   37 1
    41   25   38 1
@<TRIPOS>MOLECULE
CHEMBL370692
   44    48     0     0     0
SMALL
USER_CHARGES

@<TRIPOS>ATOM
      1 C1         -0.0165    1.3627    0.0095 C.ar      1 <0>        -0.0873
      2 C2          1.1654    2.0924    0.0022 C.ar      1 <0>        -0.1112
      3 C3          2.3861    1.4540   -0.0134 C.ar      1 <0>        -0.0547
      4 C4          2.4294    0.0605   -0.0213 C.ar      1 <0>        -0.1259
      5 C5          1.2244   -0.6786   -0.0133 C.ar      1 <0>        -0.0589
      6 C6          0.0021   -0.0041    0.0020 C.ar      1 <0>        -0.0972
      7 C7          1.3000   -2.1396   -0.0224 C.2       1 <0>         0.1407
      8 N1          2.4575   -2.7306   -0.0371 N.2       1 <0>        -0.2200
      9 N2          3.6626   -2.0276   -0.0452 N.am      1 <0>        -0.5339
     10 C8          3.6977   -0.6787   -0.0384 C.2       1 <0>         0.5285
     11 O1          4.7616   -0.0856   -0.0461 O.2       1 <0>        -0.5224
     12 C9          0.0356   -2.9595   -0.0143 C.3       1 <0>        -0.0179
     13 C10         0.3870   -4.4249   -0.0262 C.ar      1 <0>        -0.0575
     14 C11         0.5416   -5.0884   -1.2298 C.ar      1 <0>        -0.1077
     15 C12         0.8644   -6.4327   -1.2448 C.ar      1 <0>        -0.0962
     16 C13         1.0336   -7.1171   -0.0568 C.ar      1 <0>        -0.1360
     17 C14         0.8791   -6.4539    1.1528 C.ar      1 <0>         0.1253
     18 C15         0.5600   -5.1025    1.1646 C.ar      1 <0>        -0.1223
     19 N3          1.0496   -7.1457    2.3597 N.am      1 <0>        -0.5182
     20 C16         0.9158   -6.5934    3.5790 C.2       1 <0>         0.5753
     21 O2          0.6324   -5.4342    3.8050 O.2       1 <0>        -0.4473
     22 C17         1.1707   -7.6335    4.5977 C.ar      1 <0>        -0.1399
     23 C18         1.1765   -7.6503    5.9832 C.ar      1 <0>        -0.0406
     24 C19         1.4652   -8.8280    6.6550 C.ar      1 <0>        -0.0923
     25 C20         1.7470   -9.9845    5.9523 C.ar      1 <0>        -0.0922
     26 C21         1.7450   -9.9828    4.5661 C.ar      1 <0>        -0.0404
     27 C22         1.4582   -8.8130    3.8811 C.ar      1 <0>        -0.1396
     28 C23         1.3629   -8.4507    2.4513 C.2       1 <0>         0.5754
     29 O3          1.5399   -9.2045    1.5157 O.2       1 <0>        -0.4466
     30 H1         -0.9631    1.8823    0.0259 H         1 <0>         0.1367
     31 H2          1.1269    3.1717    0.0083 H         1 <0>         0.1373
     32 H3          3.3010    2.0277   -0.0197 H         1 <0>         0.1433
     33 H4         -0.9242   -0.5594    0.0075 H         1 <0>         0.1421
     34 H5         -0.5398   -2.7311    0.8829 H         1 <0>         0.1081
     35 H6         -0.5578   -2.7210   -0.8970 H         1 <0>         0.1096
     36 H7          0.4095   -4.5555   -2.1598 H         1 <0>         0.1261
     37 H8          0.9841   -6.9483   -2.1862 H         1 <0>         0.1321
     38 H9          1.2854   -8.1673   -0.0691 H         1 <0>         0.1537
     39 H10         0.4432   -4.5828    2.1041 H         1 <0>         0.1532
     40 H11         0.9573   -6.7496    6.5374 H         1 <0>         0.1452
     41 H12         1.4702   -8.8420    7.7349 H         1 <0>         0.1459
     42 H13         1.9708  -10.8958    6.4870 H         1 <0>         0.1460
     43 H14         1.9656  -10.8895    4.0223 H         1 <0>         0.1456
     44 H15         4.4973   -2.5216   -0.0562 H         1 <0>         0.4361
@<TRIPOS>BOND
     1    1    6 ar
     2    1    2 ar
     3    1   30 1
     4    2    3 ar
     5    2   31 1
     6    3    4 ar
     7    3   32 1
     8    4   10 1
     9    4    5 ar
    10    5    6 ar
    11    5    7 1
    12    6   33 1
    13    7    8 2
    14    7   12 1
    15    8    9 1
    16    9   10 am
    17    9   44 1
    18   10   11 2
    19   12   13 1
    20   12   34 1
    21   12   35 1
    22   13   18 ar
    23   13   14 ar
    24   14   15 ar
    25   14   36 1
    26   15   16 ar
    27   15   37 1
    28   16   17 ar
    29   16   38 1
    30   17   18 ar
    31   17   19 1
    32   18   39 1
    33   19   28 am
    34   19   20 am
    35   20   21 2
    36   20   22 1
    37   22   27 ar
    38   22   23 ar
    39   23   24 ar
    40   23   40 1
    41   24   25 ar
    42   24   41 1
    43   25   26 ar
    44   25   42 1
    45   26   27 ar
    46   26   43 1
    47   27   28 1
    48   28   29 2
@<TRIPOS>MOLECULE
CHEMBL191185
   55    59     0     0     0
SMALL
USER_CHARGES

@<TRIPOS>ATOM
      1 C1         -0.0488    1.3586   -0.0524 C.ar      1 <0>        -0.0795
      2 C2          1.1307    2.0931   -0.0604 C.ar      1 <0>        -0.1368
      3 C3          2.3539    1.4596   -0.0674 C.ar      1 <0>        -0.0457
      4 C4          2.4033    0.0657   -0.0665 C.ar      1 <0>        -0.1536
      5 C5          1.2011   -0.6793   -0.0584 C.ar      1 <0>         0.0304
      6 C6         -0.0257   -0.0071   -0.0514 C.ar      1 <0>        -0.1257
      7 C7          1.2713   -2.0945   -0.0571 C.2       1 <0>        -0.1652
      8 C8          2.4704   -2.7273   -0.0634 C.2       1 <0>         0.1760
      9 N1          3.6538   -2.0118   -0.0718 N.am      1 <0>        -0.6215
     10 C9          3.6745   -0.6658   -0.0732 C.2       1 <0>         0.5543
     11 O1          4.7334   -0.0643   -0.0804 O.2       1 <0>        -0.5253
     12 C10         2.2640   -4.1943   -0.0598 C.ar      1 <0>        -0.0917
     13 C11         3.1800   -5.2519   -0.0637 C.ar      1 <0>        -0.0679
     14 C12         2.7279   -6.5526   -0.0588 C.ar      1 <0>        -0.1441
     15 C13         1.3632   -6.8202   -0.0505 C.ar      1 <0>         0.1636
     16 C14         0.4488   -5.7716   -0.0467 C.ar      1 <0>        -0.1025
     17 C15         0.8971   -4.4715   -0.0510 C.ar      1 <0>        -0.0502
     18 C16         0.1831   -3.1430   -0.0488 C.3       1 <0>        -0.0295
     19 N2          0.9105   -8.1419   -0.0466 N.am      1 <0>        -0.6753
     20 C17        -0.2073   -8.4693    0.6315 C.2       1 <0>         0.5141
     21 O2         -0.8662   -7.6041    1.1685 O.2       1 <0>        -0.5121
     22 C18        -0.6384   -9.9104    0.7226 C.3       1 <0>        -0.1384
     23 C19        -1.9275  -10.0063    1.5411 C.3       1 <0>        -0.1028
     24 C20        -2.3652  -11.4695    1.6335 C.3       1 <0>         0.0547
     25 N3         -3.6029  -11.5616    2.4194 N.3       1 <0>        -0.5370
     26 C21        -3.3665  -11.1850    3.8207 C.3       1 <0>         0.0136
     27 C22        -4.6903  -11.2371    4.5879 C.3       1 <0>         0.0622
     28 O3         -5.2545  -12.5457    4.4668 O.3       1 <0>        -0.3857
     29 C23        -5.4984  -12.9447    3.1152 C.3       1 <0>         0.0624
     30 C24        -4.1827  -12.9098    2.3331 C.3       1 <0>         0.0173
     31 H1         -0.9974    1.8749   -0.0425 H         1 <0>         0.1302
     32 H2          1.0881    3.1723   -0.0614 H         1 <0>         0.1320
     33 H3          3.2665    2.0370   -0.0739 H         1 <0>         0.1389
     34 H4         -0.9502   -0.5653   -0.0453 H         1 <0>         0.1337
     35 H5          4.2406   -5.0484   -0.0708 H         1 <0>         0.1293
     36 H6          3.4359   -7.3681   -0.0618 H         1 <0>         0.1340
     37 H7         -0.6112   -5.9783   -0.0402 H         1 <0>         0.1478
     38 H8         -0.4273   -3.0451    0.8490 H         1 <0>         0.1091
     39 H9         -0.4381   -3.0479   -0.9394 H         1 <0>         0.1081
     40 H10         1.4007   -8.8239   -0.5319 H         1 <0>         0.4146
     41 H11        -0.8146  -10.3010   -0.2797 H         1 <0>         0.1005
     42 H12         0.1442  -10.4939    1.2075 H         1 <0>         0.0980
     43 H13        -1.7514   -9.6158    2.5434 H         1 <0>         0.0725
     44 H14        -2.7101   -9.4229    1.0561 H         1 <0>         0.0822
     45 H15        -2.5414  -11.8600    0.6313 H         1 <0>         0.0782
     46 H16        -1.5826  -12.0529    2.1185 H         1 <0>         0.0367
     47 H17        -2.6578  -11.8807    4.2700 H         1 <0>         0.0431
     48 H18        -2.9612  -10.1740    3.8625 H         1 <0>         0.0908
     49 H19        -4.5106  -11.0142    5.6396 H         1 <0>         0.0990
     50 H20        -5.3809  -10.5032    4.1725 H         1 <0>         0.0611
     51 H21        -5.9031  -13.9567    3.1018 H         1 <0>         0.0990
     52 H22        -6.2125  -12.2604    2.6570 H         1 <0>         0.0608
     53 H23        -4.3733  -13.1579    1.2890 H         1 <0>         0.0871
     54 H24        -3.4871  -13.6331    2.7586 H         1 <0>         0.0434
     55 H25         4.4950   -2.4948   -0.0763 H         1 <0>         0.4117
@<TRIPOS>BOND
     1    1    6 ar
     2    1    2 ar
     3    1   31 1
     4    2    3 ar
     5    2   32 1
     6    3    4 ar
     7    3   33 1
     8    4   10 1
     9    4    5 ar
    10    5    6 ar
    11    5    7 1
    12    6   34 1
    13    7   18 1
    14    7    8 2
    15    8    9 1
    16    8   12 1
    17    9   10 am
    18    9   55 1
    19   10   11 2
    20   12   17 ar
    21   12   13 ar
    22   13   14 ar
    23   13   35 1
    24   14   15 ar
    25   14   36 1
    26   15   16 ar
    27   15   19 1
    28   16   17 ar
    29   16   37 1
    30   17   18 1
    31   18   38 1
    32   18   39 1
    33   19   20 am
    34   19   40 1
    35   20   21 2
    36   20   22 1
    37   22   23 1
    38   22   41 1
    39   22   42 1
    40   23   24 1
    41   23   43 1
    42   23   44 1
    43   24   25 1
    44   24   45 1
    45   24   46 1
    46   25   30 1
    47   25   26 1
    48   26   27 1
    49   26   47 1
    50   26   48 1
    51   27   28 1
    52   27   49 1
    53   27   50 1
    54   28   29 1
    55   29   30 1
    56   29   51 1
    57   29   52 1
    58   30   53 1
    59   30   54 1
@<TRIPOS>MOLECULE
CHEMBL191185__1
   56    60     0     0     0
SMALL
USER_CHARGES

@<TRIPOS>ATOM
      1 C1          7.0198   -1.0936    1.9974 C.ar      1 <0>        -0.0792
      2 C2          6.6534    0.1772    1.5711 C.ar      1 <0>        -0.1322
      3 C3          5.4702    0.3783    0.8949 C.ar      1 <0>        -0.0454
      4 C4          4.6348   -0.7085    0.6380 C.ar      1 <0>        -0.1499
      5 C5          5.0103   -2.0008    1.0731 C.ar      1 <0>         0.0247
      6 C6          6.2181   -2.1731    1.7575 C.ar      1 <0>        -0.1251
      7 C7          4.1489   -3.0928    0.8025 C.2       1 <0>        -0.1589
      8 C8          2.9826   -2.9051    0.1372 C.2       1 <0>         0.1690
      9 N1          2.6024   -1.6472   -0.2937 N.am      1 <0>        -0.6223
     10 C9          3.3633   -0.5581   -0.0775 C.2       1 <0>         0.5539
     11 O1          3.0011    0.5365   -0.4699 O.2       1 <0>        -0.5197
     12 C10         2.2766   -4.1988   -0.0137 C.ar      1 <0>        -0.0786
     13 C11         1.0553   -4.5150   -0.6187 C.ar      1 <0>        -0.0688
     14 C12         0.6096   -5.8178   -0.6270 C.ar      1 <0>        -0.1377
     15 C13         1.3684   -6.8220   -0.0358 C.ar      1 <0>         0.1483
     16 C14         2.5835   -6.5121    0.5670 C.ar      1 <0>        -0.0988
     17 C15         3.0317   -5.2120    0.5766 C.ar      1 <0>        -0.0538
     18 C16         4.2738   -4.5621    1.1331 C.3       1 <0>        -0.0295
     19 N2          0.9105   -8.1419   -0.0466 N.am      1 <0>        -0.6661
     20 C17         1.7877   -9.1586   -0.1617 C.2       1 <0>         0.5133
     21 O2          2.9794   -8.9332   -0.1717 O.2       1 <0>        -0.5171
     22 C18         1.2879  -10.5755   -0.2781 C.3       1 <0>        -0.1380
     23 C19         2.4791  -11.5285   -0.3954 C.3       1 <0>        -0.1364
     24 C20         1.9716  -12.9670   -0.5136 C.3       1 <0>        -0.0098
     25 N3          3.1153  -13.8820   -0.6263 N.4       1 <0>        -0.3851
     26 C21         3.8312  -13.6191   -1.8822 C.3       1 <0>        -0.0493
     27 C22         5.0225  -14.5735   -1.9971 C.3       1 <0>         0.0359
     28 O3          4.5533  -15.9231   -1.9325 O.3       1 <0>        -0.3566
     29 C23         3.8279  -16.2219   -0.7365 C.3       1 <0>         0.0352
     30 C24         2.6345  -15.2705   -0.6192 C.3       1 <0>        -0.0433
     31 H1          7.9539   -1.2303    2.5221 H         1 <0>         0.1314
     32 H2          7.3030    1.0162    1.7723 H         1 <0>         0.1342
     33 H3          5.1918    1.3689    0.5669 H         1 <0>         0.1408
     34 H4          6.5153   -3.1552    2.0947 H         1 <0>         0.1327
     35 H5          0.4626   -3.7379   -1.0784 H         1 <0>         0.1326
     36 H6         -0.3333   -6.0606   -1.0943 H         1 <0>         0.1351
     37 H7          3.1736   -7.2912    1.0264 H         1 <0>         0.1450
     38 H8          5.1620   -4.9804    0.6596 H         1 <0>         0.1090
     39 H9          4.3205   -4.7024    2.2130 H         1 <0>         0.1090
     40 H10        -0.0388   -8.3265    0.0288 H         1 <0>         0.4164
     41 H11         0.7055  -10.8292    0.6077 H         1 <0>         0.1104
     42 H12         0.6601  -10.6677   -1.1644 H         1 <0>         0.1101
     43 H13         3.0615  -11.2748   -1.2812 H         1 <0>         0.0971
     44 H14         3.1068  -11.4363    0.4908 H         1 <0>         0.0977
     45 H15         1.3892  -13.2208    0.3722 H         1 <0>         0.1352
     46 H16         1.3438  -13.0592   -1.3998 H         1 <0>         0.1329
     47 H17         3.1573  -13.7756   -2.7245 H         1 <0>         0.1396
     48 H18         4.1884  -12.5893   -1.8884 H         1 <0>         0.1450
     49 H19         5.5298  -14.4096   -2.9479 H         1 <0>         0.1425
     50 H20         5.7165  -14.3897   -1.1770 H         1 <0>         0.0820
     51 H21         3.4707  -17.2509   -0.7749 H         1 <0>         0.1424
     52 H22         4.4811  -16.0945    0.1268 H         1 <0>         0.0816
     53 H23         2.1033  -15.4667    0.3122 H         1 <0>         0.1432
     54 H24         1.9611  -15.4264   -1.4620 H         1 <0>         0.1393
     55 H25         1.7616   -1.5467   -0.7670 H         1 <0>         0.4121
     56 H26         3.7394  -13.7381    0.1534 H         1 <0>         0.4242
@<TRIPOS>BOND
     1    1    6 ar
     2    1    2 ar
     3    1   31 1
     4    2    3 ar
     5    2   32 1
     6    3    4 ar
     7    3   33 1
     8    4   10 1
     9    4    5 ar
    10    5    6 ar
    11    5    7 1
    12    6   34 1
    13    7   18 1
    14    7    8 2
    15    8    9 1
    16    8   12 1
    17    9   10 am
    18    9   55 1
    19   10   11 2
    20   12   17 ar
    21   12   13 ar
    22   13   14 ar
    23   13   35 1
    24   14   15 ar
    25   14   36 1
    26   15   16 ar
    27   15   19 1
    28   16   17 ar
    29   16   37 1
    30   17   18 1
    31   18   38 1
    32   18   39 1
    33   19   20 am
    34   19   40 1
    35   20   21 2
    36   20   22 1
    37   22   23 1
    38   22   41 1
    39   22   42 1
    40   23   24 1
    41   23   43 1
    42   23   44 1
    43   24   25 1
    44   24   45 1
    45   24   46 1
    46   25   30 1
    47   25   26 1
    48   25   56 1
    49   26   27 1
    50   26   47 1
    51   26   48 1
    52   27   28 1
    53   27   49 1
    54   27   50 1
    55   28   29 1
    56   29   30 1
    57   29   51 1
    58   29   52 1
    59   30   53 1
    60   30   54 1
@<TRIPOS>MOLECULE
CHEMBL549388
   37    39     0     0     0
SMALL
USER_CHARGES

@<TRIPOS>ATOM
      1 C1         -0.0187    1.5258    0.0104 C.3       1 <0>        -0.1866
      2 C2          0.0021   -0.0041    0.0020 C.3       1 <0>         0.0236
      3 C3          0.7182   -0.4975   -1.2568 C.3       1 <0>        -0.1852
      4 N1          0.7126   -0.4907    1.1921 N.4       1 <0>        -0.5082
      5 C4         -0.0398   -0.1189    2.3978 C.3       1 <0>         0.0443
      6 C5          0.6890   -0.6181    3.6187 C.ar      1 <0>        -0.1401
      7 C6          0.4195   -1.8821    4.1137 C.ar      1 <0>        -0.0926
      8 C7          1.0836   -2.3458    5.2320 C.ar      1 <0>        -0.0978
      9 C8          2.0245   -1.5433    5.8633 C.ar      1 <0>         0.1333
     10 C9          2.2966   -0.2696    5.3658 C.ar      1 <0>         0.1610
     11 C10         1.6271    0.1849    4.2357 C.ar      1 <0>        -0.1112
     12 N2          3.2383    0.5504    5.9875 N.am      1 <0>        -0.6558
     13 H1          3.4172    1.4344    5.6306 H         1 <0>         0.4244
     14 C11         3.9010    0.1236    7.0809 C.2       1 <0>         0.5861
     15 O1          4.7213    0.8439    7.6199 O.2       1 <0>        -0.4882
     16 C12         3.6282   -1.2114    7.6166 C.2       1 <0>        -0.0782
     17 N3          2.6951   -2.0161    6.9963 N.pl3     1 <0>        -0.3875
     18 C13         2.6222   -3.1886    7.6744 C.2       1 <0>         0.0338
     19 C14         3.4895   -3.1493    8.7153 C.2       1 <0>        -0.1803
     20 C15         4.1328   -1.9081    8.6927 C.2       1 <0>        -0.0697
     21 H2          1.0039    1.9031    0.0027 H         1 <0>         0.0820
     22 H3         -0.5459    1.8868   -0.8726 H         1 <0>         0.1070
     23 H4         -0.5289    1.8773    0.9072 H         1 <0>         0.0818
     24 H5         -1.0205   -0.3814    0.0098 H         1 <0>         0.1406
     25 H6          1.7408   -0.1202   -1.2645 H         1 <0>         0.0815
     26 H7          0.7330   -1.5874   -1.2628 H         1 <0>         0.0821
     27 H8          0.1910   -0.1364   -2.1398 H         1 <0>         0.1075
     28 H9          0.7982   -1.4950    1.1455 H         1 <0>         0.4285
     29 H10        -0.1324    0.9660    2.4481 H         1 <0>         0.1419
     30 H11        -1.0328   -0.5668    2.3589 H         1 <0>         0.1434
     31 H12        -0.3126   -2.5073    3.6243 H         1 <0>         0.1461
     32 H13         0.8710   -3.3327    5.6158 H         1 <0>         0.1507
     33 H14         1.8372    1.1688    3.8432 H         1 <0>         0.1483
     34 H15         1.9773   -4.0184    7.4257 H         1 <0>         0.1807
     35 H16         3.6544   -3.9375    9.4350 H         1 <0>         0.1644
     36 H17         4.8827   -1.5608    9.3880 H         1 <0>         0.1626
     37 H18         1.6317   -0.0761    1.2281 H         1 <0>         0.4258
@<TRIPOS>BOND
     1    1    2 1
     2    1   21 1
     3    1   22 1
     4    1   23 1
     5    2    3 1
     6    2    4 1
     7    2   24 1
     8    3   25 1
     9    3   26 1
    10    3   27 1
    11    4    5 1
    12    4   28 1
    13    4   37 1
    14    5    6 1
    15    5   29 1
    16    5   30 1
    17    6   11 ar
    18    6    7 ar
    19    7    8 ar
    20    7   31 1
    21    8    9 ar
    22    8   32 1
    23    9   17 1
    24    9   10 ar
    25   10   11 ar
    26   10   12 1
    27   11   33 1
    28   12   13 1
    29   12   14 am
    30   14   15 2
    31   14   16 1
    32   16   20 2
    33   16   17 1
    34   17   18 1
    35   18   19 2
    36   18   34 1
    37   19   20 1
    38   19   35 1
    39   20   36 1
@<TRIPOS>MOLECULE
CHEMBL1173054
   50    54     0     0     0
SMALL
USER_CHARGES

@<TRIPOS>ATOM
      1 C1         -0.0167    1.3768    0.0096 C.ar      1 <0>        -0.0983
      2 C2          1.1576    2.1044    0.0023 C.ar      1 <0>        -0.0700
      3 C3          2.3931    1.4545   -0.0341 C.ar      1 <0>        -0.0859
      4 C4          2.4121    0.0472   -0.1414 C.ar      1 <0>        -0.0741
      5 C5          1.2132   -0.6828   -0.0635 C.ar      1 <0>         0.0977
      6 C6          0.0021   -0.0041    0.0020 C.ar      1 <0>        -0.0998
      7 N1          1.5462   -2.0210   -0.0901 N.pl3     1 <0>        -0.5808
      8 H1          0.9282   -2.7596    0.0255 H         1 <0>         0.4204
      9 C7          2.8991   -2.1347   -0.3086 C.2       1 <0>         0.0998
     10 C8          3.4480   -0.8973   -0.3745 C.2       1 <0>        -0.1319
     11 C9          4.8607   -0.5280   -0.6587 C.3       1 <0>        -0.0735
     12 C10         4.9769    0.7981   -1.3687 C.3       1 <0>         0.1118
     13 N2          4.8028    1.9361   -0.5005 N.am      1 <0>        -0.7163
     14 C11         3.6226    2.2386    0.0732 C.2       1 <0>         0.5613
     15 O1          3.5751    3.2548    0.7397 O.2       1 <0>        -0.5362
     16 C12         3.6389   -3.4072   -0.4484 C.ar      1 <0>         0.0126
     17 C13         4.8479   -3.5926    0.2239 C.ar      1 <0>        -0.0912
     18 C14         5.5333   -4.7823    0.0891 C.ar      1 <0>        -0.0871
     19 C15         5.0248   -5.7903   -0.7108 C.ar      1 <0>        -0.1576
     20 C16         3.8272   -5.6127   -1.3803 C.ar      1 <0>        -0.0881
     21 C17         3.1285   -4.4304   -1.2488 C.ar      1 <0>        -0.1042
     22 C18         5.7792   -7.0870   -0.8538 C.3       1 <0>         0.0481
     23 N3          5.3402   -8.0262    0.1870 N.4       1 <0>        -0.3935
     24 C19         3.9406   -8.4539   -0.0663 C.3       1 <0>        -0.0061
     25 C20         3.8317   -9.7894    0.7116 C.3       1 <0>        -0.1457
     26 C21         5.2204  -10.4320    0.4912 C.3       1 <0>        -0.1452
     27 C22         6.1543   -9.2600    0.1368 C.3       1 <0>        -0.0091
     28 H2         -0.9637    1.8957    0.0260 H         1 <0>         0.1404
     29 H3          1.1198    3.1836    0.0245 H         1 <0>         0.1394
     30 H4         -0.9247   -0.5568    0.0469 H         1 <0>         0.1301
     31 H5          5.4075   -0.4734    0.2827 H         1 <0>         0.0794
     32 H6          5.3096   -1.3021   -1.2810 H         1 <0>         0.0847
     33 H7          5.9617    0.8605   -1.8318 H         1 <0>         0.0924
     34 H8          4.2223    0.8403   -2.1542 H         1 <0>         0.0699
     35 H9          5.5667    2.5069   -0.3224 H         1 <0>         0.4079
     36 H10         5.2462   -2.8063    0.8480 H         1 <0>         0.1416
     37 H11         6.4689   -4.9270    0.6088 H         1 <0>         0.1370
     38 H12         3.4361   -6.4032   -2.0038 H         1 <0>         0.1338
     39 H13         2.1912   -4.2950   -1.7678 H         1 <0>         0.1353
     40 H14         5.5821   -7.5156   -1.8364 H         1 <0>         0.1357
     41 H15         6.8476   -6.8995   -0.7468 H         1 <0>         0.1373
     42 H16         3.2369   -7.7206    0.3278 H         1 <0>         0.1324
     43 H17         3.7742   -8.6144   -1.1315 H         1 <0>         0.1326
     44 H18         3.6557   -9.6052    1.7714 H         1 <0>         0.0973
     45 H19         3.0453  -10.4170    0.2923 H         1 <0>         0.1163
     46 H20         5.5590  -10.9231    1.4035 H         1 <0>         0.1051
     47 H21         5.1806  -11.1461   -0.3314 H         1 <0>         0.1040
     48 H22         6.5586   -9.3975   -0.8660 H         1 <0>         0.1315
     49 H23         6.9656   -9.1993    0.8622 H         1 <0>         0.1325
     50 H24         5.4146   -7.5971    1.0972 H         1 <0>         0.4263
@<TRIPOS>BOND
     1    1    6 ar
     2    1    2 ar
     3    1   28 1
     4    2    3 ar
     5    2   29 1
     6    3   14 1
     7    3    4 ar
     8    4   10 1
     9    4    5 ar
    10    5    6 ar
    11    5    7 1
    12    6   30 1
    13    7    8 1
    14    7    9 1
    15    9   10 2
    16    9   16 1
    17   10   11 1
    18   11   12 1
    19   11   31 1
    20   11   32 1
    21   12   13 1
    22   12   33 1
    23   12   34 1
    24   13   14 am
    25   13   35 1
    26   14   15 2
    27   16   21 ar
    28   16   17 ar
    29   17   18 ar
    30   17   36 1
    31   18   19 ar
    32   18   37 1
    33   19   20 ar
    34   19   22 1
    35   20   21 ar
    36   20   38 1
    37   21   39 1
    38   22   23 1
    39   22   40 1
    40   22   41 1
    41   23   27 1
    42   23   24 1
    43   23   50 1
    44   24   25 1
    45   24   42 1
    46   24   43 1
    47   25   26 1
    48   25   44 1
    49   25   45 1
    50   26   27 1
    51   26   46 1
    52   26   47 1
    53   27   48 1
    54   27   49 1
@<TRIPOS>MOLECULE
CHEMBL550788
   27    30     0     0     0
SMALL
USER_CHARGES

@<TRIPOS>ATOM
      1 C1         -0.0165    1.3632    0.0095 C.ar      1 <0>        -0.1601
      2 C2          1.1677    2.0868    0.0021 C.ar      1 <0>        -0.0841
      3 C3          2.3865    1.4413   -0.0134 C.ar      1 <0>        -0.1464
      4 C4          2.4269    0.0536   -0.0212 C.ar      1 <0>         0.1998
      5 C5          1.2246   -0.6771   -0.0132 C.ar      1 <0>        -0.1619
      6 C6          0.0021   -0.0041    0.0020 C.ar      1 <0>        -0.0360
      7 C7          1.3001   -2.1432   -0.0222 C.2       1 <0>         0.4753
      8 O1          0.1710   -2.8895   -0.0155 O.3       1 <0>        -0.6580
      9 N1          2.4800   -2.7194   -0.0374 N.2       1 <0>        -0.6142
     10 C8          3.6235   -2.0081   -0.0449 C.2       1 <0>         0.3616
     11 N2          3.6244   -0.6392   -0.0372 N.pl3     1 <0>        -0.3537
     12 N3          4.9559   -0.2050   -0.0477 N.2       1 <0>        -0.3213
     13 C9          5.7464   -1.2627   -0.0614 C.2       1 <0>         0.1687
     14 C10         4.9479   -2.4147   -0.0611 C.2       1 <0>        -0.3224
     15 C11         7.2248   -1.2363   -0.0753 C.2       1 <0>         0.0812
     16 C12         8.0025   -0.1217   -0.0701 C.2       1 <0>        -0.1823
     17 C13         9.3418   -0.5611   -0.0870 C.2       1 <0>        -0.2154
     18 C14         9.3151   -1.9078   -0.1015 C.2       1 <0>        -0.0404
     19 O2          8.0343   -2.3125   -0.0893 O.3       1 <0>        -0.1640
     20 H1         -0.9619    1.8850    0.0259 H         1 <0>         0.1241
     21 H2          1.1346    3.1663    0.0082 H         1 <0>         0.1255
     22 H3          3.3036    2.0117   -0.0198 H         1 <0>         0.1335
     23 H4         -0.9239   -0.5599    0.0082 H         1 <0>         0.1394
     24 H5          5.3012   -3.4352   -0.0709 H         1 <0>         0.1470
     25 H6          7.6605    0.9026   -0.0561 H         1 <0>         0.1519
     26 H7         10.2227    0.0638   -0.0887 H         1 <0>         0.1485
     27 H8         10.1797   -2.5548   -0.1164 H         1 <0>         0.2038
@<TRIPOS>BOND
     1    1    6 ar
     2    1    2 ar
     3    1   20 1
     4    2    3 ar
     5    2   21 1
     6    3    4 ar
     7    3   22 1
     8    4   11 1
     9    4    5 ar
    10    5    6 ar
    11    5    7 1
    12    6   23 1
    13    7    8 1
    14    7    9 2
    15    9   10 1
    16   10   14 2
    17   10   11 1
    18   11   12 1
    19   12   13 2
    20   13   14 1
    21   13   15 1
    22   14   24 1
    23   15   19 1
    24   15   16 2
    25   16   17 1
    26   16   25 1
    27   17   18 2
    28   17   26 1
    29   18   19 1
    30   18   27 1
@<TRIPOS>MOLECULE
CHEMBL550787
   27    30     0     0     0
SMALL
USER_CHARGES

@<TRIPOS>ATOM
      1 C1         -0.0165    1.3631    0.0095 C.ar      1 <0>        -0.1603
      2 C2          1.1677    2.0868    0.0021 C.ar      1 <0>        -0.0841
      3 C3          2.3865    1.4413   -0.0130 C.ar      1 <0>        -0.1467
      4 C4          2.4270    0.0536   -0.0209 C.ar      1 <0>         0.1996
      5 C5          1.2246   -0.6771   -0.0133 C.ar      1 <0>        -0.1622
      6 C6          0.0021   -0.0041    0.0020 C.ar      1 <0>        -0.0360
      7 C7          1.3002   -2.1432   -0.0225 C.2       1 <0>         0.4755
      8 O1          0.1710   -2.8895   -0.0162 O.3       1 <0>        -0.6580
      9 N1          2.4800   -2.7193   -0.0373 N.2       1 <0>        -0.6147
     10 C8          3.6235   -2.0080   -0.0443 C.2       1 <0>         0.3632
     11 N2          3.6244   -0.6391   -0.0365 N.pl3     1 <0>        -0.3549
     12 N3          4.9559   -0.2050   -0.0470 N.2       1 <0>        -0.3253
     13 C9          5.7463   -1.2626   -0.0607 C.2       1 <0>         0.1749
     14 C10         4.9480   -2.4145   -0.0601 C.2       1 <0>        -0.3258
     15 C11         7.2251   -1.2360   -0.0754 C.2       1 <0>        -0.0488
     16 C12         8.0685   -0.1580   -0.0719 C.2       1 <0>        -0.1500
     17 C13         9.4284   -0.3805   -0.0882 C.2       1 <0>        -0.1510
     18 C14         9.8893   -1.6572   -0.1072 C.2       1 <0>        -0.1936
     19 S1          8.3747   -2.6019   -0.0945 S.3       1 <0>         0.0793
     20 H1         -0.9619    1.8850    0.0259 H         1 <0>         0.1240
     21 H2          1.1346    3.1663    0.0079 H         1 <0>         0.1253
     22 H3          3.3036    2.0117   -0.0190 H         1 <0>         0.1330
     23 H4         -0.9239   -0.5599    0.0083 H         1 <0>         0.1393
     24 H5          5.3015   -3.4350   -0.0692 H         1 <0>         0.1450
     25 H6          7.6756    0.8480   -0.0570 H         1 <0>         0.1367
     26 H7         10.1186    0.4501   -0.0862 H         1 <0>         0.1315
     27 H8         10.9098   -2.0104   -0.1220 H         1 <0>         0.1842
@<TRIPOS>BOND
     1    1    6 ar
     2    1    2 ar
     3    1   20 1
     4    2    3 ar
     5    2   21 1
     6    3    4 ar
     7    3   22 1
     8    4   11 1
     9    4    5 ar
    10    5    6 ar
    11    5    7 1
    12    6   23 1
    13    7    8 1
    14    7    9 2
    15    9   10 1
    16   10   14 2
    17   10   11 1
    18   11   12 1
    19   12   13 2
    20   13   14 1
    21   13   15 1
    22   14   24 1
    23   15   19 1
    24   15   16 2
    25   16   17 1
    26   16   25 1
    27   17   18 2
    28   17   26 1
    29   18   19 1
    30   18   27 1
@<TRIPOS>MOLECULE
CHEMBL201616
   47    50     0     0     0
SMALL
USER_CHARGES

@<TRIPOS>ATOM
      1 C1          1.4504    1.3848   -0.1170 C.ar      1 <0>        -0.0862
      2 C2          2.7458    1.8633   -0.2661 C.ar      1 <0>        -0.1069
      3 C3          3.8072    0.9935   -0.3873 C.ar      1 <0>        -0.0529
      4 C4          3.5726   -0.3805   -0.3589 C.ar      1 <0>        -0.1243
      5 C5          2.2529   -0.8635   -0.2066 C.ar      1 <0>        -0.0644
      6 C6          1.1969    0.0420   -0.0865 C.ar      1 <0>        -0.0997
      7 C7          2.0362   -2.3102   -0.1807 C.2       1 <0>         0.1334
      8 N1          3.0456   -3.1209   -0.2960 N.2       1 <0>        -0.2225
      9 N2          4.3582   -2.6732   -0.4474 N.am      1 <0>        -0.5341
     10 H1          5.0726   -3.3243   -0.5289 H         1 <0>         0.4375
     11 C8          4.6604   -1.3586   -0.4836 C.2       1 <0>         0.5277
     12 O1          5.8138   -0.9904   -0.6170 O.2       1 <0>        -0.5130
     13 C9          0.6425   -2.8604   -0.0198 C.3       1 <0>        -0.0181
     14 C10         0.6935   -4.3666   -0.0247 C.ar      1 <0>        -0.0758
     15 C11         0.5853   -5.0571   -1.2190 C.ar      1 <0>        -0.0686
     16 C12         0.6315   -6.4397   -1.2323 C.ar      1 <0>        -0.1134
     17 C13         0.7856   -7.1392   -0.0530 C.ar      1 <0>        -0.0577
     18 C14         0.8952   -6.4489    1.1549 C.ar      1 <0>        -0.1443
     19 C15         0.8535   -5.0536    1.1607 C.ar      1 <0>        -0.0848
     20 C16         1.0600   -7.1920    2.4224 C.2       1 <0>         0.5746
     21 O2          1.7436   -8.1966    2.4535 O.2       1 <0>        -0.5019
     22 N3          0.4523   -6.7555    3.5434 N.am      1 <0>        -0.6327
     23 C17        -0.4851   -5.6224    3.5034 C.3       1 <0>         0.0721
     24 C18        -1.7759   -6.0345    4.2188 C.3       1 <0>        -0.0228
     25 N4         -1.4551   -6.5082    5.5711 N.4       1 <0>        -0.5056
     26 C19        -0.6399   -7.7270    5.4938 C.3       1 <0>        -0.0199
     27 C20         0.7029   -7.4024    4.8406 C.3       1 <0>         0.0858
     28 H2          0.6326    2.0834   -0.0194 H         1 <0>         0.1379
     29 H3          2.9227    2.9285   -0.2876 H         1 <0>         0.1399
     30 H4          4.8118    1.3726   -0.5037 H         1 <0>         0.1454
     31 H5          0.1849   -0.3168    0.0296 H         1 <0>         0.1401
     32 H6          0.2219   -2.5142    0.9243 H         1 <0>         0.1050
     33 H7          0.0182   -2.5153   -0.8440 H         1 <0>         0.1113
     34 H8          0.4639   -4.5144   -2.1447 H         1 <0>         0.1323
     35 H9          0.5466   -6.9727   -2.1677 H         1 <0>         0.1368
     36 H10         0.8208   -8.2186   -0.0646 H         1 <0>         0.1338
     37 H11         0.9422   -4.5133    2.0916 H         1 <0>         0.1269
     38 H12        -0.0439   -4.7639    4.0096 H         1 <0>         0.0987
     39 H13        -0.7064   -5.3665    2.4672 H         1 <0>         0.1411
     40 H14        -2.4454   -5.1768    4.2835 H         1 <0>         0.1488
     41 H15        -2.2622   -6.8338    3.6596 H         1 <0>         0.1368
     42 H16        -0.9420   -5.7926    6.0639 H         1 <0>         0.4292
     43 H17        -0.4722   -8.1164    6.4980 H         1 <0>         0.1484
     44 H18        -1.1605   -8.4752    4.8960 H         1 <0>         0.1362
     45 H19         1.2667   -8.3227    4.6881 H         1 <0>         0.1375
     46 H20         1.2662   -6.7266    5.4842 H         1 <0>         0.0967
     47 H21        -2.3103   -6.7080    6.0679 H         1 <0>         0.4356
@<TRIPOS>BOND
     1    1    6 ar
     2    1    2 ar
     3    1   28 1
     4    2    3 ar
     5    2   29 1
     6    3    4 ar
     7    3   30 1
     8    4   11 1
     9    4    5 ar
    10    5    6 ar
    11    5    7 1
    12    6   31 1
    13    7    8 2
    14    7   13 1
    15    8    9 1
    16    9   10 1
    17    9   11 am
    18   11   12 2
    19   13   14 1
    20   13   32 1
    21   13   33 1
    22   14   19 ar
    23   14   15 ar
    24   15   16 ar
    25   15   34 1
    26   16   17 ar
    27   16   35 1
    28   17   18 ar
    29   17   36 1
    30   18   19 ar
    31   18   20 1
    32   19   37 1
    33   20   21 2
    34   20   22 am
    35   22   27 1
    36   22   23 1
    37   23   24 1
    38   23   38 1
    39   23   39 1
    40   24   25 1
    41   24   40 1
    42   24   41 1
    43   25   26 1
    44   25   42 1
    45   25   47 1
    46   26   27 1
    47   26   43 1
    48   26   44 1
    49   27   45 1
    50   27   46 1
@<TRIPOS>MOLECULE
CHEMBL201616__1
   46    49     0     0     0
SMALL
USER_CHARGES

@<TRIPOS>ATOM
      1 C1          1.5746    1.3696   -0.1462 C.ar      1 <0>        -0.0872
      2 C2          2.8766    1.8245   -0.3111 C.ar      1 <0>        -0.1107
      3 C3          3.9210    0.9356   -0.4416 C.ar      1 <0>        -0.0544
      4 C4          3.6623   -0.4340   -0.4066 C.ar      1 <0>        -0.1256
      5 C5          2.3359   -0.8930   -0.2382 C.ar      1 <0>        -0.0598
      6 C6          1.2977    0.0316   -0.1089 C.ar      1 <0>        -0.0978
      7 C7          2.0938   -2.3354   -0.2056 C.2       1 <0>         0.1368
      8 N1          3.0872   -3.1643   -0.3298 N.2       1 <0>        -0.2189
      9 N2          4.4058   -2.7406   -0.4971 N.am      1 <0>        -0.5335
     10 H1          5.1076   -3.4045   -0.5847 H         1 <0>         0.4370
     11 C8          4.7309   -1.4317   -0.5405 C.2       1 <0>         0.5281
     12 O1          5.8892   -1.0845   -0.6879 O.2       1 <0>        -0.5208
     13 C9          0.6924   -2.8603   -0.0276 C.3       1 <0>        -0.0180
     14 C10         0.7165   -4.3671   -0.0287 C.ar      1 <0>        -0.0826
     15 C11         0.5827   -5.0589   -1.2197 C.ar      1 <0>        -0.0788
     16 C12         0.6042   -6.4421   -1.2295 C.ar      1 <0>        -0.1205
     17 C13         0.7589   -7.1410   -0.0499 C.ar      1 <0>        -0.0630
     18 C14         0.8943   -6.4495    1.1547 C.ar      1 <0>        -0.1284
     19 C15         0.8775   -5.0537    1.1568 C.ar      1 <0>        -0.0755
     20 C16         1.0600   -7.1920    2.4224 C.2       1 <0>         0.5616
     21 O2          1.7443   -8.1961    2.4537 O.2       1 <0>        -0.5328
     22 N3          0.4523   -6.7555    3.5434 N.am      1 <0>        -0.6106
     23 C17         0.7085   -7.3994    4.8407 C.3       1 <0>         0.1144
     24 C18        -0.6374   -7.7462    5.4862 C.3       1 <0>         0.0427
     25 N4         -1.4734   -6.5398    5.5459 N.3       1 <0>        -0.6899
     26 C19        -1.7836   -6.0392    4.2001 C.3       1 <0>         0.0409
     27 C20        -0.4800   -5.6186    3.5029 C.3       1 <0>         0.1019
     28 H2          0.7705    2.0829   -0.0416 H         1 <0>         0.1367
     29 H3          3.0722    2.8863   -0.3377 H         1 <0>         0.1375
     30 H4          4.9308    1.2963   -0.5702 H         1 <0>         0.1434
     31 H5          0.2808   -0.3088    0.0195 H         1 <0>         0.1419
     32 H6          0.2886   -2.5041    0.9201 H         1 <0>         0.1070
     33 H7          0.0652   -2.5064   -0.8458 H         1 <0>         0.1089
     34 H8          0.4606   -4.5166   -2.1456 H         1 <0>         0.1263
     35 H9          0.4992   -6.9760   -2.1624 H         1 <0>         0.1307
     36 H10         0.7748   -8.2209   -0.0588 H         1 <0>         0.1301
     37 H11         0.9863   -4.5125    2.0851 H         1 <0>         0.1288
     38 H12         1.2875   -8.3104    4.6892 H         1 <0>         0.0970
     39 H13         1.2590   -6.7155    5.4866 H         1 <0>         0.0768
     40 H14        -1.1405   -8.5083    4.8912 H         1 <0>         0.0373
     41 H15        -0.4704   -8.1233    6.4952 H         1 <0>         0.0898
     42 H16        -2.3176   -6.7105    6.0716 H         1 <0>         0.3487
     43 H17        -2.2708   -6.8252    3.6230 H         1 <0>         0.0377
     44 H18        -2.4479   -5.1784    4.2764 H         1 <0>         0.0897
     45 H19        -0.0415   -4.7668    4.0227 H         1 <0>         0.0786
     46 H20        -0.6872   -5.3517    2.4666 H         1 <0>         0.0985
@<TRIPOS>BOND
     1    1    6 ar
     2    1    2 ar
     3    1   28 1
     4    2    3 ar
     5    2   29 1
     6    3    4 ar
     7    3   30 1
     8    4   11 1
     9    4    5 ar
    10    5    6 ar
    11    5    7 1
    12    6   31 1
    13    7    8 2
    14    7   13 1
    15    8    9 1
    16    9   10 1
    17    9   11 am
    18   11   12 2
    19   13   14 1
    20   13   32 1
    21   13   33 1
    22   14   19 ar
    23   14   15 ar
    24   15   16 ar
    25   15   34 1
    26   16   17 ar
    27   16   35 1
    28   17   18 ar
    29   17   36 1
    30   18   19 ar
    31   18   20 1
    32   19   37 1
    33   20   21 2
    34   20   22 am
    35   22   27 1
    36   22   23 1
    37   23   24 1
    38   23   38 1
    39   23   39 1
    40   24   25 1
    41   24   40 1
    42   24   41 1
    43   25   26 1
    44   25   42 1
    45   26   27 1
    46   26   43 1
    47   26   44 1
    48   27   45 1
    49   27   46 1
@<TRIPOS>MOLECULE
CHEMBL591589
   61    64     0     0     0
SMALL
USER_CHARGES

@<TRIPOS>ATOM
      1 C1         -1.6971   -3.1790    0.0715 C.3       1 <0>        -0.1254
      2 C2         -1.9136   -3.9389    1.3547 C.2       1 <0>        -0.0458
      3 C3         -2.5687   -5.1376    1.3568 C.2       1 <0>        -0.1522
      4 C4         -2.7360   -5.7944    2.5950 C.2       1 <0>         0.4822
      5 O1         -3.3140   -6.8681    2.6505 O.2       1 <0>        -0.5244
      6 N1         -2.2508   -5.2243    3.7145 N.am      1 <0>        -0.4490
      7 H1         -2.3668   -5.6773    4.5643 H         1 <0>         0.4406
      8 N2         -1.6382   -4.0964    3.6851 N.2       1 <0>        -0.2136
      9 C5         -1.4419   -3.4353    2.5783 C.2       1 <0>         0.0667
     10 C6         -0.7089   -2.1191    2.6129 C.3       1 <0>        -0.0126
     11 C7         -0.3101   -1.8033    4.0314 C.ar      1 <0>        -0.0824
     12 C8         -1.1707   -1.0884    4.8472 C.ar      1 <0>        -0.0467
     13 C9         -0.8144   -0.7937    6.1496 C.ar      1 <0>        -0.1503
     14 C10         0.4065   -1.2125    6.6469 C.ar      1 <0>         0.1496
     15 C11         1.2791   -1.9351    5.8276 C.ar      1 <0>        -0.1734
     16 C12         0.9078   -2.2321    4.5143 C.ar      1 <0>        -0.0504
     17 C13         2.5850   -2.3862    6.3496 C.2       1 <0>         0.5729
     18 O2          2.6438   -2.9806    7.4085 O.2       1 <0>        -0.5077
     19 N3          3.7114   -2.1389    5.6522 N.am      1 <0>        -0.6143
     20 C14         3.6738   -1.3074    4.4409 C.3       1 <0>         0.0868
     21 C15         4.6744   -0.1567    4.6051 C.3       1 <0>         0.0952
     22 N4          5.9624   -0.7133    5.0425 N.am      1 <0>        -0.6037
     23 C16         6.0000   -1.5448    6.2537 C.3       1 <0>         0.0708
     24 C17         5.0003   -2.6908    6.0926 C.3       1 <0>         0.0994
     25 C18         7.0888   -0.4659    4.3450 C.2       1 <0>         0.5202
     26 O3          7.0595    0.2827    3.3913 O.2       1 <0>        -0.4739
     27 C19         8.3848   -1.1196    4.7502 C.3       1 <0>         0.0418
     28 C20         9.6286   -0.3251    4.3281 C.3       1 <0>        -0.1350
     29 C21         9.4368    0.3648    5.6860 C.3       1 <0>        -0.0006
     30 N5          8.7605   -0.8600    6.1525 N.4       1 <0>        -0.5364
     31 C22         8.4461   -2.5995    4.3668 C.3       1 <0>        -0.1703
     32 F1          0.7548   -0.9239    7.9200 F         1 <0>        -0.1246
     33 C23        -3.0959   -5.7386    0.0794 C.3       1 <0>        -0.1023
     34 H2         -0.7538   -3.4879   -0.3789 H         1 <0>         0.0876
     35 H3         -2.5149   -3.3893   -0.6177 H         1 <0>         0.0843
     36 H4         -1.6659   -2.1102    0.2830 H         1 <0>         0.0807
     37 H5          0.1836   -2.1837    1.9904 H         1 <0>         0.1028
     38 H6         -1.3596   -1.3308    2.2343 H         1 <0>         0.1071
     39 H7         -2.1251   -0.7591    4.4637 H         1 <0>         0.1408
     40 H8         -1.4903   -0.2350    6.7801 H         1 <0>         0.1469
     41 H9          1.5753   -2.7930    3.8771 H         1 <0>         0.1349
     42 H10         3.9480   -1.9098    3.5750 H         1 <0>         0.0842
     43 H11         2.6705   -0.9032    4.3057 H         1 <0>         0.1148
     44 H12         4.8022    0.3558    3.6517 H         1 <0>         0.1188
     45 H13         4.3059    0.5446    5.3538 H         1 <0>         0.0901
     46 H14         7.0032   -1.9489    6.3890 H         1 <0>         0.0751
     47 H15         5.7258   -0.9423    7.1197 H         1 <0>         0.1015
     48 H16         4.8729   -3.2000    7.0479 H         1 <0>         0.1180
     49 H17         5.3711   -3.3940    5.3470 H         1 <0>         0.0822
     50 H18        10.5370   -0.9232    4.2557 H         1 <0>         0.1386
     51 H19         9.4711    0.3278    3.4696 H         1 <0>         0.1430
     52 H20        10.3730    0.5686    6.2056 H         1 <0>         0.1500
     53 H21         8.7802    1.2337    5.6426 H         1 <0>         0.1513
     54 H22         7.9700   -0.6780    6.7526 H         1 <0>         0.4221
     55 H23         8.1763   -2.7143    3.3169 H         1 <0>         0.1152
     56 H24         9.4573   -2.9743    4.5251 H         1 <0>         0.1023
     57 H25         7.7484   -3.1642    4.9851 H         1 <0>         0.0899
     58 H26        -2.3296   -6.3721   -0.3675 H         1 <0>         0.0803
     59 H27        -3.9804   -6.3372    0.2974 H         1 <0>         0.0804
     60 H28        -3.3591   -4.9414   -0.6158 H         1 <0>         0.0800
     61 H29         9.3934   -1.5479    6.5323 H         1 <0>         0.4458
@<TRIPOS>BOND
     1    1    2 1
     2    1   34 1
     3    1   35 1
     4    1   36 1
     5    2    9 1
     6    2    3 2
     7    3    4 1
     8    3   33 1
     9    4    5 2
    10    4    6 am
    11    6    7 1
    12    6    8 1
    13    8    9 2
    14    9   10 1
    15   10   11 1
    16   10   37 1
    17   10   38 1
    18   11   16 ar
    19   11   12 ar
    20   12   13 ar
    21   12   39 1
    22   13   14 ar
    23   13   40 1
    24   14   15 ar
    25   14   32 1
    26   15   16 ar
    27   15   17 1
    28   16   41 1
    29   17   18 2
    30   17   19 am
    31   19   24 1
    32   19   20 1
    33   20   21 1
    34   20   42 1
    35   20   43 1
    36   21   22 1
    37   21   44 1
    38   21   45 1
    39   22   23 1
    40   22   25 am
    41   23   24 1
    42   23   46 1
    43   23   47 1
    44   24   48 1
    45   24   49 1
    46   25   26 2
    47   25   27 1
    48   27   30 1
    49   27   28 1
    50   27   31 1
    51   28   29 1
    52   28   50 1
    53   28   51 1
    54   29   30 1
    55   29   52 1
    56   29   53 1
    57   30   54 1
    58   30   61 1
    59   31   55 1
    60   31   56 1
    61   31   57 1
    62   33   58 1
    63   33   59 1
    64   33   60 1
@<TRIPOS>MOLECULE
CHEMBL591589__1
   60    63     0     0     0
SMALL
USER_CHARGES

@<TRIPOS>ATOM
      1 C1         -3.0286   -2.5429   -0.0125 C.3       1 <0>        -0.1079
      2 C2         -3.1170   -1.2007   -0.6919 C.ar      1 <0>        -0.0671
      3 C3         -3.9205   -1.0165   -1.8071 C.ar      1 <0>        -0.1996
      4 C4         -3.9543    0.2500   -2.3843 C.ar      1 <0>         0.3659
      5 O1         -4.7256    0.4805   -3.4767 O.3       1 <0>        -0.6930
      6 N1         -3.2312    1.2284   -1.8628 N.ar      1 <0>        -0.3579
      7 N2         -2.4892    1.0524   -0.8305 N.ar      1 <0>        -0.2006
      8 C5         -2.4014   -0.1113   -0.2171 C.ar      1 <0>        -0.0750
      9 C6         -1.5191   -0.2596    0.9956 C.3       1 <0>        -0.0036
     10 C7         -2.3350   -0.0295    2.2416 C.ar      1 <0>        -0.0678
     11 C8         -2.5672    1.2612    2.6858 C.ar      1 <0>        -0.0460
     12 C9         -3.3141    1.4829    3.8272 C.ar      1 <0>        -0.1525
     13 C10        -3.8356    0.4143    4.5339 C.ar      1 <0>         0.1361
     14 C11        -3.6045   -0.8912    4.0895 C.ar      1 <0>        -0.1804
     15 C12        -2.8524   -1.1045    2.9322 C.ar      1 <0>        -0.0663
     16 C13        -4.1568   -2.0385    4.8377 C.2       1 <0>         0.5776
     17 O2         -5.3286   -2.0457    5.1616 O.2       1 <0>        -0.5120
     18 N3         -3.3619   -3.0776    5.1615 N.am      1 <0>        -0.6150
     19 C14        -1.9186   -3.0285    4.8888 C.3       1 <0>         0.0847
     20 C15        -1.1633   -3.2913    6.1975 C.3       1 <0>         0.0955
     21 N4         -1.7241   -4.4935    6.8300 N.am      1 <0>        -0.6011
     22 C16        -3.1674   -4.5426    7.1027 C.3       1 <0>         0.0713
     23 C17        -3.9217   -4.2775    5.7991 C.3       1 <0>         0.0994
     24 C18        -0.9291   -5.5326    7.1538 C.2       1 <0>         0.5184
     25 O3          0.2695   -5.4543    6.9861 O.2       1 <0>        -0.4764
     26 C19        -1.5295   -6.7916    7.7241 C.3       1 <0>         0.0425
     27 C20        -0.5496   -7.6008    8.5853 C.3       1 <0>        -0.1351
     28 C21        -1.0831   -6.7141    9.7192 C.3       1 <0>         0.0000
     29 N5         -2.3277   -6.5621    8.9428 N.4       1 <0>        -0.5359
     30 C22        -2.2539   -7.6316    6.6703 C.3       1 <0>        -0.1709
     31 F1         -4.5653    0.6311    5.6500 F         1 <0>        -0.1308
     32 C23        -4.7313   -2.1519   -2.3767 C.3       1 <0>        -0.0809
     33 H1         -3.7446   -2.5825    0.8084 H         1 <0>         0.0601
     34 H2         -3.2563   -3.3299   -0.7315 H         1 <0>         0.0653
     35 H3         -2.0209   -2.6873    0.3772 H         1 <0>         0.0610
     36 H4         -1.0977   -1.2646    1.0177 H         1 <0>         0.0771
     37 H5         -0.7122    0.4718    0.9495 H         1 <0>         0.0875
     38 H6         -2.1622    2.0990    2.1376 H         1 <0>         0.1473
     39 H7         -3.4907    2.4923    4.1683 H         1 <0>         0.1440
     40 H8         -2.6731   -2.1100    2.5812 H         1 <0>         0.1359
     41 H9         -1.6584   -3.7928    4.1564 H         1 <0>         0.0846
     42 H10        -1.6523   -2.0440    4.5041 H         1 <0>         0.1190
     43 H11        -0.1061   -3.4494    5.9843 H         1 <0>         0.1183
     44 H12        -1.2808   -2.4379    6.8653 H         1 <0>         0.0901
     45 H13        -3.4337   -5.5271    7.4874 H         1 <0>         0.0732
     46 H14        -3.4275   -3.7783    7.8350 H         1 <0>         0.1004
     47 H15        -4.9780   -4.1177    6.0155 H         1 <0>         0.1170
     48 H16        -3.8075   -5.1328    5.1331 H         1 <0>         0.0810
     49 H17        -0.8079   -8.6551    8.6841 H         1 <0>         0.1372
     50 H18         0.5000   -7.4333    8.3439 H         1 <0>         0.1427
     51 H19        -1.2204   -7.2476   10.6597 H         1 <0>         0.1484
     52 H20        -0.5297   -5.7827    9.8391 H         1 <0>         0.1511
     53 H21        -2.7226   -5.6351    8.9951 H         1 <0>         0.4228
     54 H22        -1.6009   -7.7769    5.8097 H         1 <0>         0.1157
     55 H23        -2.5159   -8.6006    7.0952 H         1 <0>         0.1008
     56 H24        -3.1609   -7.1158    6.3551 H         1 <0>         0.0913
     57 H25        -5.7137   -2.1694   -1.9047 H         1 <0>         0.0521
     58 H26        -4.8471   -2.0123   -3.4515 H         1 <0>         0.0673
     59 H27        -4.2197   -3.0953   -2.1858 H         1 <0>         0.0482
     60 H28        -3.0039   -7.2892    9.1224 H         1 <0>         0.4447
@<TRIPOS>BOND
     1    1    2 1
     2    1   33 1
     3    1   34 1
     4    1   35 1
     5    2    8 ar
     6    2    3 ar
     7    3    4 ar
     8    3   32 1
     9    4    5 1
    10    4    6 ar
    11    6    7 ar
    12    7    8 ar
    13    8    9 1
    14    9   10 1
    15    9   36 1
    16    9   37 1
    17   10   15 ar
    18   10   11 ar
    19   11   12 ar
    20   11   38 1
    21   12   13 ar
    22   12   39 1
    23   13   14 ar
    24   13   31 1
    25   14   15 ar
    26   14   16 1
    27   15   40 1
    28   16   17 2
    29   16   18 am
    30   18   23 1
    31   18   19 1
    32   19   20 1
    33   19   41 1
    34   19   42 1
    35   20   21 1
    36   20   43 1
    37   20   44 1
    38   21   22 1
    39   21   24 am
    40   22   23 1
    41   22   45 1
    42   22   46 1
    43   23   47 1
    44   23   48 1
    45   24   25 2
    46   24   26 1
    47   26   29 1
    48   26   27 1
    49   26   30 1
    50   27   28 1
    51   27   49 1
    52   27   50 1
    53   28   29 1
    54   28   51 1
    55   28   52 1
    56   29   53 1
    57   29   60 1
    58   30   54 1
    59   30   55 1
    60   30   56 1
    61   32   57 1
    62   32   58 1
    63   32   59 1
@<TRIPOS>MOLECULE
CHEMBL591588
   67    70     0     0     0
SMALL
USER_CHARGES

@<TRIPOS>ATOM
      1 C1         -1.2973   -3.5120   -0.7428 C.3       1 <0>        -0.1254
      2 C2         -1.5520   -4.3418    0.4891 C.2       1 <0>        -0.0462
      3 C3         -2.1542   -5.5645    0.3977 C.2       1 <0>        -0.1519
      4 C4         -2.3616   -6.2873    1.5923 C.2       1 <0>         0.4821
      5 O1         -2.8953   -7.3847    1.5644 O.2       1 <0>        -0.5239
      6 N1         -1.9641   -5.7536    2.7631 N.am      1 <0>        -0.4491
      7 H1         -2.1075   -6.2519    3.5828 H         1 <0>         0.4407
      8 N2         -1.3996   -4.6019    2.8215 N.2       1 <0>        -0.2133
      9 C5         -1.1708   -3.8801    1.7598 C.2       1 <0>         0.0663
     10 C6         -0.4979   -2.5388    1.8977 C.3       1 <0>        -0.0121
     11 C7         -0.1923   -2.2770    3.3500 C.ar      1 <0>        -0.0822
     12 C8         -1.1266   -1.6380    4.1474 C.ar      1 <0>        -0.0469
     13 C9         -0.8561   -1.3933    5.4804 C.ar      1 <0>        -0.1490
     14 C10         0.3522   -1.7866    6.0270 C.ar      1 <0>         0.1490
     15 C11         1.2991   -2.4327    5.2264 C.ar      1 <0>        -0.1732
     16 C12         1.0142   -2.6797    3.8816 C.ar      1 <0>        -0.0503
     17 C13         2.5921   -2.8560    5.8010 C.2       1 <0>         0.5741
     18 O2          2.6157   -3.5516    6.7978 O.2       1 <0>        -0.5046
     19 N3          3.7459   -2.4711    5.2203 N.am      1 <0>        -0.6131
     20 C14         3.7380   -1.5255    4.0954 C.3       1 <0>         0.0887
     21 C15         4.6431   -0.3383    4.4468 C.3       1 <0>         0.0941
     22 N4          5.9317   -0.8563    4.9276 N.am      1 <0>        -0.6088
     23 C16         5.9395   -1.8020    6.0525 C.3       1 <0>         0.0623
     24 C17         5.0348   -2.9849    5.7048 C.3       1 <0>         0.0898
     25 C18         7.0854   -0.4714    4.3469 C.2       1 <0>         0.5090
     26 O3          7.0780    0.3965    3.4999 O.2       1 <0>        -0.4724
     27 C19         8.3848   -1.1196    4.7502 C.3       1 <0>         0.0421
     28 C20         9.5157   -0.5855    3.8686 C.3       1 <0>        -0.1174
     29 C21         9.2126   -0.9143    2.4039 C.3       1 <0>        -0.1492
     30 C22         9.0285   -2.4277    2.2583 C.3       1 <0>        -0.1439
     31 C23         7.9157   -2.8935    3.1996 C.3       1 <0>        -0.0150
     32 N5          8.2769   -2.5742    4.5860 N.4       1 <0>        -0.5064
     33 C24         8.6839   -0.7931    6.2147 C.3       1 <0>        -0.1925
     34 F1          0.6167   -1.5469    7.3300 F         1 <0>        -0.1244
     35 C25        -2.5835   -6.1230   -0.9345 C.3       1 <0>        -0.1025
     36 H2         -0.3181   -3.7604   -1.1522 H         1 <0>         0.0871
     37 H3         -2.0659   -3.7210   -1.4870 H         1 <0>         0.0844
     38 H4         -1.3237   -2.4544   -0.4804 H         1 <0>         0.0808
     39 H5          0.4297   -2.5371    1.3252 H         1 <0>         0.1022
     40 H6         -1.1597   -1.7597    1.5195 H         1 <0>         0.1071
     41 H7         -2.0715   -1.3289    3.7254 H         1 <0>         0.1409
     42 H8         -1.5892   -0.8937    6.0963 H         1 <0>         0.1473
     43 H9          1.7395   -3.1816    3.2583 H         1 <0>         0.1338
     44 H10         4.1140   -2.0196    3.1995 H         1 <0>         0.0806
     45 H11         2.7217   -1.1718    3.9219 H         1 <0>         0.1153
     46 H12         4.8033    0.2747    3.5598 H         1 <0>         0.1181
     47 H13         4.1748    0.2600    5.2283 H         1 <0>         0.0904
     48 H14         6.9559   -2.1556    6.2261 H         1 <0>         0.0863
     49 H15         5.5635   -1.3079    6.9484 H         1 <0>         0.1118
     50 H16         4.8746   -3.5948    6.5939 H         1 <0>         0.1236
     51 H17         5.5052   -3.5852    4.9261 H         1 <0>         0.0684
     52 H18         9.5930    0.4949    3.9905 H         1 <0>         0.1190
     53 H19        10.4561   -1.0535    4.1596 H         1 <0>         0.0988
     54 H20         8.2989   -0.4049    2.0975 H         1 <0>         0.1017
     55 H21        10.0419   -0.5861    1.7775 H         1 <0>         0.0987
     56 H22         8.7576   -2.6641    1.2293 H         1 <0>         0.1153
     57 H23         9.9588   -2.9339    2.5159 H         1 <0>         0.0914
     58 H24         6.9859   -2.3869    2.9410 H         1 <0>         0.1247
     59 H25         7.7819   -3.9705    3.0984 H         1 <0>         0.1410
     60 H26         9.1624   -3.0034    4.8092 H         1 <0>         0.4342
     61 H27         7.9221   -1.2442    6.8505 H         1 <0>         0.0935
     62 H28         9.6629   -1.1904    6.4829 H         1 <0>         0.1030
     63 H29         8.6800    0.2880    6.3541 H         1 <0>         0.1161
     64 H30        -1.7672   -6.7025   -1.3656 H         1 <0>         0.0802
     65 H31        -3.4523   -6.7665   -0.7958 H         1 <0>         0.0806
     66 H32        -2.8416   -5.3039   -1.6058 H         1 <0>         0.0801
     67 H33         7.5667   -2.9301    5.2081 H         1 <0>         0.4194
@<TRIPOS>BOND
     1    1    2 1
     2    1   36 1
     3    1   37 1
     4    1   38 1
     5    2    9 1
     6    2    3 2
     7    3    4 1
     8    3   35 1
     9    4    5 2
    10    4    6 am
    11    6    7 1
    12    6    8 1
    13    8    9 2
    14    9   10 1
    15   10   11 1
    16   10   39 1
    17   10   40 1
    18   11   16 ar
    19   11   12 ar
    20   12   13 ar
    21   12   41 1
    22   13   14 ar
    23   13   42 1
    24   14   15 ar
    25   14   34 1
    26   15   16 ar
    27   15   17 1
    28   16   43 1
    29   17   18 2
    30   17   19 am
    31   19   24 1
    32   19   20 1
    33   20   21 1
    34   20   44 1
    35   20   45 1
    36   21   22 1
    37   21   46 1
    38   21   47 1
    39   22   23 1
    40   22   25 am
    41   23   24 1
    42   23   48 1
    43   23   49 1
    44   24   50 1
    45   24   51 1
    46   25   26 2
    47   25   27 1
    48   27   32 1
    49   27   28 1
    50   27   33 1
    51   28   29 1
    52   28   52 1
    53   28   53 1
    54   29   30 1
    55   29   54 1
    56   29   55 1
    57   30   31 1
    58   30   56 1
    59   30   57 1
    60   31   32 1
    61   31   58 1
    62   31   59 1
    63   32   60 1
    64   32   67 1
    65   33   61 1
    66   33   62 1
    67   33   63 1
    68   35   64 1
    69   35   65 1
    70   35   66 1
@<TRIPOS>MOLECULE
CHEMBL591588__1
   66    69     0     0     0
SMALL
USER_CHARGES

@<TRIPOS>ATOM
      1 C1         -0.2568   -4.0484   -1.8092 C.3       1 <0>        -0.1253
      2 C2         -0.5573   -4.9722   -0.6571 C.2       1 <0>        -0.0422
      3 C3         -1.0025   -6.2447   -0.8774 C.2       1 <0>        -0.1576
      4 C4         -1.2642   -7.0549    0.2485 C.2       1 <0>         0.4825
      5 O1         -1.6633   -8.1996    0.1052 O.2       1 <0>        -0.5300
      6 N1         -1.0685   -6.5520    1.4823 N.am      1 <0>        -0.4483
      7 H1         -1.2489   -7.1105    2.2547 H         1 <0>         0.4405
      8 N2         -0.6488   -5.3521    1.6621 N.2       1 <0>        -0.2102
      9 C5         -0.3812   -4.5484    0.6706 C.2       1 <0>         0.0679
     10 C6          0.1148   -3.1533    0.9511 C.3       1 <0>        -0.0117
     11 C7          0.2178   -2.9468    2.4403 C.ar      1 <0>        -0.0864
     12 C8         -0.8692   -2.4596    3.1462 C.ar      1 <0>        -0.0537
     13 C9         -0.7850   -2.2667    4.5121 C.ar      1 <0>        -0.1528
     14 C10         0.3883   -2.5602    5.1835 C.ar      1 <0>         0.1468
     15 C11         1.4889   -3.0528    4.4756 C.ar      1 <0>        -0.1605
     16 C12         1.3921   -3.2488    3.0962 C.ar      1 <0>        -0.0480
     17 C13         2.7459   -3.3687    5.1838 C.2       1 <0>         0.5647
     18 O2          2.7300   -4.1042    6.1516 O.2       1 <0>        -0.5201
     19 N3          3.9105   -2.8414    4.7571 N.am      1 <0>        -0.6063
     20 C14         3.9311   -1.8601    3.6633 C.3       1 <0>         0.0828
     21 C15         4.6521   -0.5974    4.1512 C.3       1 <0>         0.0835
     22 N4          5.9242   -0.9932    4.7717 N.am      1 <0>        -0.6016
     23 C16         5.9036   -1.9745    5.8655 C.3       1 <0>         0.0947
     24 C17         5.1821   -3.2330    5.3813 C.3       1 <0>         0.1004
     25 C18         7.0888   -0.4659    4.3450 C.2       1 <0>         0.5346
     26 O3          8.1387   -0.8632    4.8042 O.2       1 <0>        -0.5360
     27 C19         7.0865    0.6173    3.2973 C.3       1 <0>         0.0937
     28 C20         8.4163    1.3734    3.3427 C.3       1 <0>        -0.1299
     29 C21         8.5847    2.0178    4.7215 C.3       1 <0>        -0.1269
     30 C22         7.3976    2.9468    4.9903 C.3       1 <0>        -0.1573
     31 C23         6.0973    2.1451    4.8972 C.3       1 <0>         0.0491
     32 N5          5.9827    1.5496    3.5598 N.3       1 <0>        -0.6686
     33 C24         6.9048   -0.0115    1.9144 C.3       1 <0>        -0.1432
     34 F1          0.4706   -2.3711    6.5186 F         1 <0>        -0.1252
     35 C25        -1.2079   -6.7661   -2.2763 C.3       1 <0>        -0.1000
     36 H2          0.7852   -4.1660   -2.1069 H         1 <0>         0.0884
     37 H3         -0.9050   -4.2940   -2.6504 H         1 <0>         0.0827
     38 H4         -0.4332   -3.0171   -1.5036 H         1 <0>         0.0815
     39 H5          1.0964   -3.0185    0.4968 H         1 <0>         0.1034
     40 H6         -0.5825   -2.4284    0.5312 H         1 <0>         0.1054
     41 H7         -1.7875   -2.2289    2.6267 H         1 <0>         0.1367
     42 H8         -1.6365   -1.8857    5.0562 H         1 <0>         0.1432
     43 H9          2.2371   -3.6325    2.5437 H         1 <0>         0.1346
     44 H10         4.4622   -2.2770    2.8076 H         1 <0>         0.0741
     45 H11         2.9095   -1.6103    3.3766 H         1 <0>         0.0999
     46 H12         4.8471    0.0623    3.3057 H         1 <0>         0.1461
     47 H13         4.0318   -0.0824    4.8848 H         1 <0>         0.0685
     48 H14         6.9251   -2.2243    6.1522 H         1 <0>         0.1046
     49 H15         5.3725   -1.5575    6.7212 H         1 <0>         0.0725
     50 H16         4.9865   -3.8897    6.2290 H         1 <0>         0.1055
     51 H17         5.8043   -3.7500    4.6508 H         1 <0>         0.0748
     52 H18         9.2365    0.6782    3.1633 H         1 <0>         0.0792
     53 H19         8.4208    2.1481    2.5759 H         1 <0>         0.0708
     54 H20         8.6193    1.2406    5.4850 H         1 <0>         0.0737
     55 H21         9.5100    2.5933    4.7440 H         1 <0>         0.0654
     56 H22         7.4899    3.3758    5.9881 H         1 <0>         0.0691
     57 H23         7.3860    3.7463    4.2495 H         1 <0>         0.0642
     58 H24         6.1036    1.3545    5.6475 H         1 <0>         0.0740
     59 H25         5.2493    2.8067    5.0740 H         1 <0>         0.0831
     60 H26         5.9359    2.2639    2.8487 H         1 <0>         0.3508
     61 H27         5.9580   -0.5505    1.8819 H         1 <0>         0.0701
     62 H28         6.9032    0.7719    1.1565 H         1 <0>         0.0723
     63 H29         7.7239   -0.7038    1.7195 H         1 <0>         0.0696
     64 H30        -0.2867   -7.2285   -2.6307 H         1 <0>         0.0791
     65 H31        -2.0084   -7.5059   -2.2744 H         1 <0>         0.0786
     66 H32        -1.4773   -5.9410   -2.9357 H         1 <0>         0.0787
@<TRIPOS>BOND
     1    1    2 1
     2    1   36 1
     3    1   37 1
     4    1   38 1
     5    2    9 1
     6    2    3 2
     7    3    4 1
     8    3   35 1
     9    4    5 2
    10    4    6 am
    11    6    7 1
    12    6    8 1
    13    8    9 2
    14    9   10 1
    15   10   11 1
    16   10   39 1
    17   10   40 1
    18   11   16 ar
    19   11   12 ar
    20   12   13 ar
    21   12   41 1
    22   13   14 ar
    23   13   42 1
    24   14   15 ar
    25   14   34 1
    26   15   16 ar
    27   15   17 1
    28   16   43 1
    29   17   18 2
    30   17   19 am
    31   19   24 1
    32   19   20 1
    33   20   21 1
    34   20   44 1
    35   20   45 1
    36   21   22 1
    37   21   46 1
    38   21   47 1
    39   22   23 1
    40   22   25 am
    41   23   24 1
    42   23   48 1
    43   23   49 1
    44   24   50 1
    45   24   51 1
    46   25   26 2
    47   25   27 1
    48   27   32 1
    49   27   28 1
    50   27   33 1
    51   28   29 1
    52   28   52 1
    53   28   53 1
    54   29   30 1
    55   29   54 1
    56   29   55 1
    57   30   31 1
    58   30   56 1
    59   30   57 1
    60   31   32 1
    61   31   58 1
    62   31   59 1
    63   32   60 1
    64   33   61 1
    65   33   62 1
    66   33   63 1
    67   35   64 1
    68   35   65 1
    69   35   66 1
@<TRIPOS>MOLECULE
CHEMBL591588__2
   66    69     0     0     0
SMALL
USER_CHARGES

@<TRIPOS>ATOM
      1 C1         -2.8734   -3.1735   -0.4082 C.3       1 <0>        -0.1075
      2 C2         -2.9512   -1.8907   -1.1953 C.ar      1 <0>        -0.0676
      3 C3         -3.7317   -1.8005   -2.3381 C.ar      1 <0>        -0.1998
      4 C4         -3.7568   -0.5847   -3.0161 C.ar      1 <0>         0.3660
      5 O1         -4.5057   -0.4463   -4.1392 O.3       1 <0>        -0.6924
      6 N1         -3.0475    0.4357   -2.5603 N.ar      1 <0>        -0.3571
      7 N2         -2.3268    0.3467   -1.5021 N.ar      1 <0>        -0.2000
      8 C5         -2.2487   -0.7635   -0.7952 C.ar      1 <0>        -0.0752
      9 C6         -1.3916   -0.8097    0.4435 C.3       1 <0>        -0.0031
     10 C7         -2.2411   -0.5173    1.6534 C.ar      1 <0>        -0.0674
     11 C8         -2.4941    0.7943    2.0182 C.ar      1 <0>        -0.0468
     12 C9         -3.2719    1.0731    3.1260 C.ar      1 <0>        -0.1511
     13 C10        -3.8037    0.0412    3.8782 C.ar      1 <0>         0.1352
     14 C11        -3.5517   -1.2850    3.5140 C.ar      1 <0>        -0.1799
     15 C12        -2.7684   -1.5563    2.3900 C.ar      1 <0>        -0.0665
     16 C13        -4.1148   -2.3934    4.3113 C.2       1 <0>         0.5788
     17 O2         -5.3074   -2.4297    4.5445 O.2       1 <0>        -0.5085
     18 N3         -3.3066   -3.3646    4.7804 N.am      1 <0>        -0.6138
     19 C14        -1.8498   -3.2730    4.6090 C.3       1 <0>         0.0869
     20 C15        -1.1859   -3.3909    5.9865 C.3       1 <0>         0.0946
     21 N4         -1.7455   -4.5601    6.6791 N.am      1 <0>        -0.6062
     22 C16        -3.2022   -4.6516    6.8505 C.3       1 <0>         0.0622
     23 C17        -3.8658   -4.5310    5.4779 C.3       1 <0>         0.0900
     24 C18        -0.9373   -5.5313    7.1482 C.2       1 <0>         0.5073
     25 O3          0.2667   -5.3908    7.1068 O.2       1 <0>        -0.4752
     26 C19        -1.5295   -6.7916    7.7241 C.3       1 <0>         0.0417
     27 C20        -0.4044   -7.7616    8.0914 C.3       1 <0>        -0.1159
     28 C21         0.3994   -8.1023    6.8333 C.3       1 <0>        -0.1498
     29 C22        -0.5455   -8.6827    5.7772 C.3       1 <0>        -0.1430
     30 C23        -1.6654   -7.6786    5.4957 C.3       1 <0>        -0.0162
     31 N5         -2.4128   -7.4147    6.7311 N.4       1 <0>        -0.5055
     32 C24        -2.3354   -6.4487    8.9787 C.3       1 <0>        -0.1927
     33 F1         -4.5636    0.3140    4.9614 F         1 <0>        -0.1308
     34 C25        -4.5273   -2.9816   -2.8309 C.3       1 <0>        -0.0806
     35 H1         -3.6012   -3.1468    0.4027 H         1 <0>         0.0600
     36 H2         -3.0912   -4.0162   -1.0643 H         1 <0>         0.0648
     37 H3         -1.8715   -3.2852    0.0063 H         1 <0>         0.0604
     38 H4         -0.9482   -1.8006    0.5418 H         1 <0>         0.0763
     39 H5         -0.6006   -0.0638    0.3660 H         1 <0>         0.0877
     40 H6         -2.0812    1.6035    1.4341 H         1 <0>         0.1472
     41 H7         -3.4646    2.0985    3.4051 H         1 <0>         0.1444
     42 H8         -2.5728   -2.5783    2.1008 H         1 <0>         0.1354
     43 H9         -1.5055   -4.0834    3.9664 H         1 <0>         0.0808
     44 H10        -1.5939   -2.3132    4.1604 H         1 <0>         0.1192
     45 H11        -0.1103   -3.5182    5.8645 H         1 <0>         0.1175
     46 H12        -1.3867   -2.4908    6.5676 H         1 <0>         0.0904
     47 H13        -3.4582   -5.6115    7.2991 H         1 <0>         0.0847
     48 H14        -3.5466   -3.8413    7.4931 H         1 <0>         0.1109
     49 H15        -4.9408   -4.4017    5.6031 H         1 <0>         0.1226
     50 H16        -3.6683   -5.4330    4.8986 H         1 <0>         0.0671
     51 H17         0.2513   -7.2965    8.8275 H         1 <0>         0.1177
     52 H18        -0.8317   -8.6735    8.5084 H         1 <0>         0.0970
     53 H19         0.8690   -7.1985    6.4449 H         1 <0>         0.1033
     54 H20         1.1668   -8.8365    7.0787 H         1 <0>         0.0971
     55 H21         0.0093   -8.8760    4.8591 H         1 <0>         0.1154
     56 H22        -0.9758   -9.6138    6.1461 H         1 <0>         0.0899
     57 H23        -1.2341   -6.7481    5.1266 H         1 <0>         0.1267
     58 H24        -2.3399   -8.0887    4.7440 H         1 <0>         0.1421
     59 H25        -2.7705   -8.2835    7.0987 H         1 <0>         0.4327
     60 H26        -3.1844   -5.8223    8.7051 H         1 <0>         0.0949
     61 H27        -2.6958   -7.3675    9.4414 H         1 <0>         0.1013
     62 H28        -1.7000   -5.9121    9.6832 H         1 <0>         0.1150
     63 H29        -5.5193   -2.9653   -2.3795 H         1 <0>         0.0521
     64 H30        -4.6209   -2.9296   -3.9157 H         1 <0>         0.0675
     65 H31        -4.0173   -3.9043   -2.5541 H         1 <0>         0.0476
     66 H32        -3.1828   -6.7941    6.5310 H         1 <0>         0.4206
@<TRIPOS>BOND
     1    1    2 1
     2    1   35 1
     3    1   36 1
     4    1   37 1
     5    2    8 ar
     6    2    3 ar
     7    3    4 ar
     8    3   34 1
     9    4    5 1
    10    4    6 ar
    11    6    7 ar
    12    7    8 ar
    13    8    9 1
    14    9   10 1
    15    9   38 1
    16    9   39 1
    17   10   15 ar
    18   10   11 ar
    19   11   12 ar
    20   11   40 1
    21   12   13 ar
    22   12   41 1
    23   13   14 ar
    24   13   33 1
    25   14   15 ar
    26   14   16 1
    27   15   42 1
    28   16   17 2
    29   16   18 am
    30   18   23 1
    31   18   19 1
    32   19   20 1
    33   19   43 1
    34   19   44 1
    35   20   21 1
    36   20   45 1
    37   20   46 1
    38   21   22 1
    39   21   24 am
    40   22   23 1
    41   22   47 1
    42   22   48 1
    43   23   49 1
    44   23   50 1
    45   24   25 2
    46   24   26 1
    47   26   31 1
    48   26   27 1
    49   26   32 1
    50   27   28 1
    51   27   51 1
    52   27   52 1
    53   28   29 1
    54   28   53 1
    55   28   54 1
    56   29   30 1
    57   29   55 1
    58   29   56 1
    59   30   31 1
    60   30   57 1
    61   30   58 1
    62   31   59 1
    63   31   66 1
    64   32   60 1
    65   32   61 1
    66   32   62 1
    67   34   63 1
    68   34   64 1
    69   34   65 1
@<TRIPOS>MOLECULE
CHEMBL591588__3
   67    70     0     0     0
SMALL
USER_CHARGES

@<TRIPOS>ATOM
      1 C1         -1.5655   -2.8110   -0.5448 C.3       1 <0>        -0.1243
      2 C2         -1.8355   -3.6732    0.6613 C.2       1 <0>        -0.0469
      3 C3         -2.5014   -4.8597    0.5391 C.2       1 <0>        -0.1517
      4 C4         -2.7195   -5.6161    1.7109 C.2       1 <0>         0.4820
      5 O1         -3.3091   -6.6834    1.6551 O.2       1 <0>        -0.5234
      6 N1         -2.2699   -5.1479    2.8908 N.am      1 <0>        -0.4485
      7 H1         -2.4209   -5.6692    3.6948 H         1 <0>         0.4412
      8 N2         -1.6461   -4.0292    2.9784 N.2       1 <0>        -0.2116
      9 C5         -1.4037   -3.2800    1.9389 C.2       1 <0>         0.0643
     10 C6         -0.6602   -1.9804    2.1102 C.3       1 <0>        -0.0106
     11 C7         -0.3102   -1.7898    3.5636 C.ar      1 <0>        -0.0839
     12 C8         -1.1931   -1.1353    4.4058 C.ar      1 <0>        -0.0490
     13 C9         -0.8816   -0.9554    5.7402 C.ar      1 <0>        -0.1499
     14 C10         0.3165   -1.4295    6.2432 C.ar      1 <0>         0.1486
     15 C11         1.2115   -2.0915    5.3972 C.ar      1 <0>        -0.1699
     16 C12         0.8853   -2.2726    4.0513 C.ar      1 <0>        -0.0523
     17 C13         2.4934   -2.6009    5.9252 C.2       1 <0>         0.5688
     18 O2          2.5050   -3.3125    6.9108 O.2       1 <0>        -0.5039
     19 N3          3.6502   -2.2768    5.3144 N.am      1 <0>        -0.6134
     20 C14         3.6630   -1.3290    4.1913 C.3       1 <0>         0.0863
     21 C15         4.6397   -0.1929    4.5199 C.3       1 <0>         0.0558
     22 N4          5.9109   -0.7807    4.9653 N.am      1 <0>        -0.5823
     23 C16         5.8981   -1.7285    6.0884 C.3       1 <0>         0.0954
     24 C17         4.9222   -2.8602    5.7634 C.3       1 <0>         0.0976
     25 C18         7.0678   -0.4565    4.3545 C.2       1 <0>         0.5192
     26 O3          8.0936   -1.0291    4.6556 O.2       1 <0>        -0.5227
     27 C19         7.0865    0.6173    3.2973 C.3       1 <0>         0.0377
     28 C20         6.4238    1.8831    3.8451 C.3       1 <0>        -0.1538
     29 C21         7.1953    2.3643    5.0773 C.3       1 <0>        -0.1406
     30 C22         8.6593    2.5959    4.6924 C.3       1 <0>        -0.1448
     31 C23         9.2393    1.3037    4.1133 C.3       1 <0>        -0.0289
     32 N5          8.4753    0.9105    2.9232 N.4       1 <0>        -0.4824
     33 C24         6.3186    0.1331    2.0657 C.3       1 <0>        -0.1897
     34 F1          0.6211   -1.2532    7.5476 F         1 <0>        -0.1238
     35 C25        -2.9875   -5.3449   -0.8023 C.3       1 <0>        -0.1024
     36 H2         -0.6094   -3.0927   -0.9860 H         1 <0>         0.0867
     37 H3         -2.3597   -2.9527   -1.2778 H         1 <0>         0.0840
     38 H4         -1.5320   -1.7642   -0.2430 H         1 <0>         0.0800
     39 H5          0.2536   -2.0036    1.5165 H         1 <0>         0.1012
     40 H6         -1.2894   -1.1552    1.7767 H         1 <0>         0.1060
     41 H7         -2.1299   -0.7632    4.0179 H         1 <0>         0.1399
     42 H8         -1.5747   -0.4434    6.3912 H         1 <0>         0.1465
     43 H9          1.5703   -2.7862    3.3930 H         1 <0>         0.1343
     44 H10         3.9880   -1.8400    3.2850 H         1 <0>         0.0816
     45 H11         2.6629   -0.9209    4.0456 H         1 <0>         0.1131
     46 H12         4.8087    0.4131    3.6298 H         1 <0>         0.1176
     47 H13         4.2251    0.4274    5.3145 H         1 <0>         0.0961
     48 H14         6.8982   -2.1366    6.2341 H         1 <0>         0.1152
     49 H15         5.5731   -1.2174    6.9947 H         1 <0>         0.0896
     50 H16         4.7533   -3.4631    6.6556 H         1 <0>         0.1162
     51 H17         5.3388   -3.4828    4.9716 H         1 <0>         0.0797
     52 H18         6.4366    2.6604    3.0811 H         1 <0>         0.1069
     53 H19         5.3933    1.6628    4.1239 H         1 <0>         0.1261
     54 H20         6.7613    3.2970    5.4378 H         1 <0>         0.1023
     55 H21         7.1395    1.6083    5.8605 H         1 <0>         0.0790
     56 H22         8.7186    3.3880    3.9460 H         1 <0>         0.0899
     57 H23         9.2268    2.8852    5.5769 H         1 <0>         0.1142
     58 H24        10.2816    1.4650    3.8384 H         1 <0>         0.1369
     59 H25         9.1798    0.5124    4.8605 H         1 <0>         0.1532
     60 H26         8.8928    0.0885    2.5132 H         1 <0>         0.4340
     61 H27         5.2712   -0.0180    2.3269 H         1 <0>         0.1165
     62 H28         6.3919    0.8799    1.2751 H         1 <0>         0.1021
     63 H29         6.7457   -0.8074    1.7178 H         1 <0>         0.0936
     64 H30        -2.2114   -5.9479   -1.2736 H         1 <0>         0.0803
     65 H31        -3.8848   -5.9487   -0.6669 H         1 <0>         0.0806
     66 H32        -3.2178   -4.4889   -1.4366 H         1 <0>         0.0797
     67 H33         8.4898    1.6633    2.2515 H         1 <0>         0.4307
@<TRIPOS>BOND
     1    1    2 1
     2    1   36 1
     3    1   37 1
     4    1   38 1
     5    2    9 1
     6    2    3 2
     7    3    4 1
     8    3   35 1
     9    4    5 2
    10    4    6 am
    11    6    7 1
    12    6    8 1
    13    8    9 2
    14    9   10 1
    15   10   11 1
    16   10   39 1
    17   10   40 1
    18   11   16 ar
    19   11   12 ar
    20   12   13 ar
    21   12   41 1
    22   13   14 ar
    23   13   42 1
    24   14   15 ar
    25   14   34 1
    26   15   16 ar
    27   15   17 1
    28   16   43 1
    29   17   18 2
    30   17   19 am
    31   19   24 1
    32   19   20 1
    33   20   21 1
    34   20   44 1
    35   20   45 1
    36   21   22 1
    37   21   46 1
    38   21   47 1
    39   22   23 1
    40   22   25 am
    41   23   24 1
    42   23   48 1
    43   23   49 1
    44   24   50 1
    45   24   51 1
    46   25   26 2
    47   25   27 1
    48   27   32 1
    49   27   28 1
    50   27   33 1
    51   28   29 1
    52   28   52 1
    53   28   53 1
    54   29   30 1
    55   29   54 1
    56   29   55 1
    57   30   31 1
    58   30   56 1
    59   30   57 1
    60   31   32 1
    61   31   58 1
    62   31   59 1
    63   32   60 1
    64   32   67 1
    65   33   61 1
    66   33   62 1
    67   33   63 1
    68   35   64 1
    69   35   65 1
    70   35   66 1
@<TRIPOS>MOLECULE
CHEMBL591588__4
   66    69     0     0     0
SMALL
USER_CHARGES

@<TRIPOS>ATOM
      1 C1         -1.4293   -3.4180   -0.5829 C.3       1 <0>        -0.1257
      2 C2         -1.6765   -4.2342    0.6596 C.2       1 <0>        -0.0422
      3 C3         -2.3002   -5.4474    0.5879 C.2       1 <0>        -0.1572
      4 C4         -2.4991   -6.1577    1.7915 C.2       1 <0>         0.4827
      5 O1         -3.0511   -7.2463    1.7812 O.2       1 <0>        -0.5295
      6 N1         -2.0731   -5.6217    2.9512 N.am      1 <0>        -0.4484
      7 H1         -2.2108   -6.1114    3.7772 H         1 <0>         0.4405
      8 N2         -1.4889   -4.4792    2.9911 N.2       1 <0>        -0.2106
      9 C5         -1.2664   -3.7693    1.9201 C.2       1 <0>         0.0682
     10 C6         -0.5693   -2.4382    2.0361 C.3       1 <0>        -0.0123
     11 C7         -0.2349   -2.1706    3.4809 C.ar      1 <0>        -0.0857
     12 C8         -1.1449   -1.5102    4.2889 C.ar      1 <0>        -0.0530
     13 C9         -0.8479   -1.2599    5.6152 C.ar      1 <0>        -0.1523
     14 C10         0.3629   -1.6690    6.1445 C.ar      1 <0>         0.1466
     15 C11         1.2853   -2.3367    5.3331 C.ar      1 <0>        -0.1629
     16 C12         0.9737   -2.5891    3.9953 C.ar      1 <0>        -0.0483
     17 C13         2.5808   -2.7769    5.8892 C.2       1 <0>         0.5672
     18 O2          2.6099   -3.4670    6.8896 O.2       1 <0>        -0.5170
     19 N3          3.7308   -2.4136    5.2875 N.am      1 <0>        -0.6064
     20 C14         3.7192   -1.4758    4.1561 C.3       1 <0>         0.0914
     21 C15         4.6476   -0.3000    4.4845 C.3       1 <0>         0.0947
     22 N4          5.9357   -0.8343    4.9484 N.am      1 <0>        -0.6073
     23 C16         5.9474   -1.7721    6.0799 C.3       1 <0>         0.0663
     24 C17         5.0194   -2.9435    5.7550 C.3       1 <0>         0.0944
     25 C18         7.0857   -0.4710    4.3468 C.2       1 <0>         0.4990
     26 O3          7.0751    0.3780    3.4807 O.2       1 <0>        -0.5364
     27 C19         8.3848   -1.1196    4.7502 C.3       1 <0>         0.0985
     28 C20         8.2717   -2.6363    4.5805 C.3       1 <0>        -0.1206
     29 C21         7.9910   -2.9611    3.1107 C.3       1 <0>        -0.1226
     30 C22         9.1110   -2.3781    2.2445 C.3       1 <0>        -0.1178
     31 C23         9.1998   -0.8688    2.4819 C.3       1 <0>         0.0355
     32 N5          9.4700   -0.6105    3.9020 N.3       1 <0>        -0.6535
     33 C24         8.6853   -0.7916    6.2141 C.3       1 <0>        -0.1572
     34 F1          0.6533   -1.4239    7.4409 F         1 <0>        -0.1251
     35 C25        -2.7611   -6.0088   -0.7324 C.3       1 <0>        -0.1002
     36 H2         -0.4614   -3.6857   -1.0068 H         1 <0>         0.0884
     37 H3         -2.2137   -3.6199   -1.3123 H         1 <0>         0.0830
     38 H4         -1.4339   -2.3582   -0.3283 H         1 <0>         0.0813
     39 H5          0.3483   -2.4562    1.4481 H         1 <0>         0.1033
     40 H6         -1.2246   -1.6512    1.6630 H         1 <0>         0.1057
     41 H7         -2.0916   -1.1887    3.8805 H         1 <0>         0.1374
     42 H8         -1.5621   -0.7437    6.2395 H         1 <0>         0.1440
     43 H9          1.6800   -3.1076    3.3638 H         1 <0>         0.1347
     44 H10         4.0733   -1.9817    3.2579 H         1 <0>         0.0777
     45 H11         2.7056   -1.1079    3.9962 H         1 <0>         0.1018
     46 H12         4.8028    0.3043    3.5908 H         1 <0>         0.1062
     47 H13         4.2010    0.3107    5.2691 H         1 <0>         0.0738
     48 H14         6.9609   -2.1400    6.2397 H         1 <0>         0.1262
     49 H15         5.5933   -1.2662    6.9781 H         1 <0>         0.0792
     50 H16         4.8644   -3.5448    6.6509 H         1 <0>         0.1093
     51 H17         5.4682   -3.5563    4.9733 H         1 <0>         0.0779
     52 H18         9.2063   -3.1073    4.8852 H         1 <0>         0.0869
     53 H19         7.4560   -3.0118    5.1983 H         1 <0>         0.0810
     54 H20         7.9527   -4.0422    2.9774 H         1 <0>         0.0690
     55 H21         7.0374   -2.5228    2.8165 H         1 <0>         0.0554
     56 H22        10.0588   -2.8450    2.5124 H         1 <0>         0.0701
     57 H23         8.8949   -2.5690    1.1933 H         1 <0>         0.0657
     58 H24        10.0057   -0.4529    1.8773 H         1 <0>         0.0741
     59 H25         8.2563   -0.4008    2.2007 H         1 <0>         0.0674
     60 H26         9.6273    0.3724    4.0671 H         1 <0>         0.3482
     61 H27         7.9238   -1.2417    6.8510 H         1 <0>         0.0772
     62 H28         9.6643   -1.1891    6.4819 H         1 <0>         0.0827
     63 H29         8.6820    0.2896    6.3523 H         1 <0>         0.0627
     64 H30        -1.9619   -6.6050   -1.1727 H         1 <0>         0.0792
     65 H31        -3.6378   -6.6369   -0.5740 H         1 <0>         0.0788
     66 H32        -3.0171   -5.1907   -1.4056 H         1 <0>         0.0787
@<TRIPOS>BOND
     1    1    2 1
     2    1   36 1
     3    1   37 1
     4    1   38 1
     5    2    9 1
     6    2    3 2
     7    3    4 1
     8    3   35 1
     9    4    5 2
    10    4    6 am
    11    6    7 1
    12    6    8 1
    13    8    9 2
    14    9   10 1
    15   10   11 1
    16   10   39 1
    17   10   40 1
    18   11   16 ar
    19   11   12 ar
    20   12   13 ar
    21   12   41 1
    22   13   14 ar
    23   13   42 1
    24   14   15 ar
    25   14   34 1
    26   15   16 ar
    27   15   17 1
    28   16   43 1
    29   17   18 2
    30   17   19 am
    31   19   24 1
    32   19   20 1
    33   20   21 1
    34   20   44 1
    35   20   45 1
    36   21   22 1
    37   21   46 1
    38   21   47 1
    39   22   23 1
    40   22   25 am
    41   23   24 1
    42   23   48 1
    43   23   49 1
    44   24   50 1
    45   24   51 1
    46   25   26 2
    47   25   27 1
    48   27   32 1
    49   27   28 1
    50   27   33 1
    51   28   29 1
    52   28   52 1
    53   28   53 1
    54   29   30 1
    55   29   54 1
    56   29   55 1
    57   30   31 1
    58   30   56 1
    59   30   57 1
    60   31   32 1
    61   31   58 1
    62   31   59 1
    63   32   60 1
    64   33   61 1
    65   33   62 1
    66   33   63 1
    67   35   64 1
    68   35   65 1
    69   35   66 1
@<TRIPOS>MOLECULE
CHEMBL591588__5
   66    69     0     0     0
SMALL
USER_CHARGES

@<TRIPOS>ATOM
      1 C1         -3.5103   -0.9975    0.8934 C.3       1 <0>        -0.1082
      2 C2         -3.5439    0.4574    0.5019 C.ar      1 <0>        -0.0673
      3 C3         -4.4436    0.9212   -0.4460 C.ar      1 <0>        -0.1988
      4 C4         -4.4192    2.2775   -0.7594 C.ar      1 <0>         0.3662
      5 O1         -5.2801    2.7796   -1.6802 O.3       1 <0>        -0.6921
      6 N1         -3.5529    3.0752   -0.1550 N.ar      1 <0>        -0.3582
      7 N2         -2.7223    2.6407    0.7217 N.ar      1 <0>        -0.2008
      8 C5         -2.6795    1.3735    1.0833 C.ar      1 <0>        -0.0763
      9 C6         -1.6877    0.9194    2.1230 C.3       1 <0>        -0.0015
     10 C7         -2.3460    0.9184    3.4786 C.ar      1 <0>        -0.0688
     11 C8         -2.4085    2.0885    4.2162 C.ar      1 <0>        -0.0494
     12 C9         -3.0101    2.0981    5.4604 C.ar      1 <0>        -0.1517
     13 C10        -3.5548    0.9363    5.9770 C.ar      1 <0>         0.1338
     14 C11        -3.4948   -0.2480    5.2362 C.ar      1 <0>        -0.1764
     15 C12        -2.8890   -0.2463    3.9778 C.ar      1 <0>        -0.0680
     16 C13        -4.0733   -1.4935    5.7797 C.2       1 <0>         0.5740
     17 O2         -5.2247   -1.5094    6.1694 O.2       1 <0>        -0.5076
     18 N3         -3.3247   -2.6124    5.8435 N.am      1 <0>        -0.6143
     19 C14        -1.9002   -2.5809    5.4832 C.3       1 <0>         0.0856
     20 C15        -1.0845   -3.1272    6.6615 C.3       1 <0>         0.0554
     21 N4         -1.6779   -4.4006    7.0932 N.am      1 <0>        -0.5793
     22 C16        -3.1023   -4.4321    7.4535 C.3       1 <0>         0.0960
     23 C17        -3.9167   -3.8846    6.2806 C.3       1 <0>         0.0976
     24 C18        -0.9293   -5.5195    7.1571 C.2       1 <0>         0.5190
     25 O3         -1.4514   -6.5849    7.4082 O.2       1 <0>        -0.5275
     26 C19         0.5566   -5.4467    6.9165 C.3       1 <0>         0.0377
     27 C20         1.1696   -4.3850    7.8324 C.3       1 <0>        -0.1530
     28 C21         0.9054   -4.7641    9.2924 C.3       1 <0>        -0.1403
     29 C22         1.4765   -6.1599    9.5585 C.3       1 <0>        -0.1439
     30 C23         0.8522   -7.1558    8.5787 C.3       1 <0>        -0.0295
     31 N5          1.1624   -6.7529    7.2018 N.4       1 <0>        -0.4819
     32 C24         0.8185   -5.0716    5.4565 C.3       1 <0>        -0.1920
     33 F1         -4.1424    0.9458    7.1935 F         1 <0>        -0.1306
     34 C25        -5.4171   -0.0138   -1.1163 C.3       1 <0>        -0.0815
     35 H1         -4.1266   -1.1496    1.7795 H         1 <0>         0.0614
     36 H2         -3.8967   -1.6033    0.0737 H         1 <0>         0.0654
     37 H3         -2.4834   -1.2919    1.1101 H         1 <0>         0.0599
     38 H4         -1.3464   -0.0879    1.8841 H         1 <0>         0.0756
     39 H5         -0.8355    1.5989    2.1335 H         1 <0>         0.0865
     40 H6         -1.9847    2.9983    3.8174 H         1 <0>         0.1462
     41 H7         -3.0546    3.0143    6.0305 H         1 <0>         0.1434
     42 H8         -2.8424   -1.1566    3.3985 H         1 <0>         0.1358
     43 H9         -1.7318   -3.2012    4.6029 H         1 <0>         0.0819
     44 H10        -1.5985   -1.5547    5.2739 H         1 <0>         0.1166
     45 H11        -0.0537   -3.2918    6.3477 H         1 <0>         0.1167
     46 H12        -1.1093   -2.4141    7.4855 H         1 <0>         0.0963
     47 H13        -3.4041   -5.4583    7.6628 H         1 <0>         0.1133
     48 H14        -3.2708   -3.8118    8.3339 H         1 <0>         0.0888
     49 H15        -4.9463   -3.7190    6.5978 H         1 <0>         0.1153
     50 H16        -3.8952   -4.5997    5.4583 H         1 <0>         0.0786
     51 H17         2.2443   -4.3314    7.6590 H         1 <0>         0.1063
     52 H18         0.7172   -3.4163    7.6203 H         1 <0>         0.1267
     53 H19         1.3885   -4.0412    9.9498 H         1 <0>         0.1016
     54 H20        -0.1684   -4.7680    9.4794 H         1 <0>         0.0794
     55 H21         2.5577   -6.1431    9.4209 H         1 <0>         0.0887
     56 H22         1.2436   -6.4598   10.5802 H         1 <0>         0.1127
     57 H23         1.2566   -8.1506    8.7655 H         1 <0>         0.1349
     58 H24        -0.2288   -7.1720    8.7173 H         1 <0>         0.1546
     59 H25         0.7953   -7.4400    6.5605 H         1 <0>         0.4336
     60 H26         0.4372   -4.0686    5.2650 H         1 <0>         0.1199
     61 H27         1.8907   -5.0961    5.2618 H         1 <0>         0.1014
     62 H28         0.3141   -5.7830    4.8026 H         1 <0>         0.0940
     63 H29        -6.3388   -0.0558   -0.5360 H         1 <0>         0.0528
     64 H30        -5.6362    0.3487   -2.1206 H         1 <0>         0.0674
     65 H31        -4.9803   -1.0106   -1.1770 H         1 <0>         0.0483
     66 H32         2.1630   -6.6905    7.0880 H         1 <0>         0.4297
@<TRIPOS>BOND
     1    1    2 1
     2    1   35 1
     3    1   36 1
     4    1   37 1
     5    2    8 ar
     6    2    3 ar
     7    3    4 ar
     8    3   34 1
     9    4    5 1
    10    4    6 ar
    11    6    7 ar
    12    7    8 ar
    13    8    9 1
    14    9   10 1
    15    9   38 1
    16    9   39 1
    17   10   15 ar
    18   10   11 ar
    19   11   12 ar
    20   11   40 1
    21   12   13 ar
    22   12   41 1
    23   13   14 ar
    24   13   33 1
    25   14   15 ar
    26   14   16 1
    27   15   42 1
    28   16   17 2
    29   16   18 am
    30   18   23 1
    31   18   19 1
    32   19   20 1
    33   19   43 1
    34   19   44 1
    35   20   21 1
    36   20   45 1
    37   20   46 1
    38   21   22 1
    39   21   24 am
    40   22   23 1
    41   22   47 1
    42   22   48 1
    43   23   49 1
    44   23   50 1
    45   24   25 2
    46   24   26 1
    47   26   31 1
    48   26   27 1
    49   26   32 1
    50   27   28 1
    51   27   51 1
    52   27   52 1
    53   28   29 1
    54   28   53 1
    55   28   54 1
    56   29   30 1
    57   29   55 1
    58   29   56 1
    59   30   31 1
    60   30   57 1
    61   30   58 1
    62   31   59 1
    63   31   66 1
    64   32   60 1
    65   32   61 1
    66   32   62 1
    67   34   63 1
    68   34   64 1
    69   34   65 1
@<TRIPOS>MOLECULE
CHEMBL598087
   37    39     0     0     0
SMALL
USER_CHARGES

@<TRIPOS>ATOM
      1 C1         -0.0167    1.3779    0.0096 C.ar      1 <0>        -0.0837
      2 C2          1.1693    2.0931    0.0021 C.ar      1 <0>        -0.0755
      3 C3          2.3786    1.4315   -0.0130 C.ar      1 <0>        -0.0919
      4 C4          2.4206    0.0389   -0.0209 C.ar      1 <0>        -0.1110
      5 C5          1.2153   -0.6868   -0.0133 C.ar      1 <0>        -0.0625
      6 C6          0.0021   -0.0041    0.0020 C.ar      1 <0>        -0.0918
      7 C7          1.2370   -2.1661   -0.0219 C.2       1 <0>         0.5426
      8 O1          2.2982   -2.7583   -0.0357 O.2       1 <0>        -0.4952
      9 N1          0.0798   -2.8571   -0.0146 N.am      1 <0>        -0.8501
     10 C8          3.8352   -0.3832   -0.0372 C.2       1 <0>         0.5539
     11 O2          4.2160   -1.5374   -0.0471 O.2       1 <0>        -0.4631
     12 N2          4.6417    0.6924   -0.0393 N.am      1 <0>        -0.6232
     13 C9          3.8117    1.9023   -0.0246 C.3       1 <0>         0.1459
     14 C10         6.1063    0.6616   -0.0540 C.3       1 <0>         0.1614
     15 C11         6.5899   -0.0683   -1.3104 C.3       1 <0>        -0.1590
     16 C12         8.1179   -0.1637   -1.2771 C.3       1 <0>        -0.1399
     17 C13         8.5514   -0.8721    0.0081 C.3       1 <0>        -0.0118
     18 N3          8.0816   -0.1118    1.1725 N.4       1 <0>        -0.4977
     19 C14         6.6142   -0.0774    1.1859 C.3       1 <0>        -0.0317
     20 H1         -0.9605    1.9026    0.0260 H         1 <0>         0.1475
     21 H2          1.1466    3.1728    0.0078 H         1 <0>         0.1423
     22 H3         -0.9265   -0.5555    0.0079 H         1 <0>         0.1418
     23 H4         -0.7672   -2.3845   -0.0036 H         1 <0>         0.4004
     24 H5          0.0940   -3.8270   -0.0203 H         1 <0>         0.4101
     25 H6          4.0028    2.4984   -0.9169 H         1 <0>         0.1031
     26 H7          4.0205    2.4888    0.8701 H         1 <0>         0.1013
     27 H8          6.4918    1.6811   -0.0535 H         1 <0>         0.1151
     28 H9          6.1626   -1.0707   -1.3368 H         1 <0>         0.0997
     29 H10         6.2785    0.4854   -2.1962 H         1 <0>         0.0980
     30 H11         8.4661   -0.7307   -2.1404 H         1 <0>         0.1185
     31 H12         8.5458    0.8385   -1.3023 H         1 <0>         0.0908
     32 H13         8.1232   -1.8742    0.0322 H         1 <0>         0.1341
     33 H14         9.6388   -0.9419    0.0350 H         1 <0>         0.1380
     34 H15         8.4144   -0.5523    2.0171 H         1 <0>         0.4361
     35 H16         6.2716    0.4395    2.0822 H         1 <0>         0.1360
     36 H17         6.2273   -1.0964    1.1849 H         1 <0>         0.1450
     37 H18         8.4387    0.8306    1.1239 H         1 <0>         0.4267
@<TRIPOS>BOND
     1    1    6 ar
     2    1    2 ar
     3    1   20 1
     4    2    3 ar
     5    2   21 1
     6    3   13 1
     7    3    4 ar
     8    4    5 ar
     9    4   10 1
    10    5    6 ar
    11    5    7 1
    12    6   22 1
    13    7    8 2
    14    7    9 am
    15    9   23 1
    16    9   24 1
    17   10   11 2
    18   10   12 am
    19   12   13 1
    20   12   14 1
    21   13   25 1
    22   13   26 1
    23   14   19 1
    24   14   15 1
    25   14   27 1
    26   15   16 1
    27   15   28 1
    28   15   29 1
    29   16   17 1
    30   16   30 1
    31   16   31 1
    32   17   18 1
    33   17   32 1
    34   17   33 1
    35   18   19 1
    36   18   34 1
    37   18   37 1
    38   19   35 1
    39   19   36 1
@<TRIPOS>MOLECULE
CHEMBL598087__1
   37    39     0     0     0
SMALL
USER_CHARGES

@<TRIPOS>ATOM
      1 C1         -0.0167    1.3779    0.0096 C.ar      1 <0>        -0.0837
      2 C2          1.1693    2.0931    0.0021 C.ar      1 <0>        -0.0755
      3 C3          2.3786    1.4315   -0.0130 C.ar      1 <0>        -0.0919
      4 C4          2.4206    0.0389   -0.0209 C.ar      1 <0>        -0.1110
      5 C5          1.2153   -0.6868   -0.0133 C.ar      1 <0>        -0.0625
      6 C6          0.0021   -0.0041    0.0020 C.ar      1 <0>        -0.0918
      7 C7          1.2370   -2.1661   -0.0219 C.2       1 <0>         0.5426
      8 O1          2.2982   -2.7583   -0.0357 O.2       1 <0>        -0.4952
      9 N1          0.0798   -2.8571   -0.0146 N.am      1 <0>        -0.8501
     10 C8          3.8352   -0.3832   -0.0372 C.2       1 <0>         0.5538
     11 O2          4.2160   -1.5374   -0.0471 O.2       1 <0>        -0.4631
     12 N2          4.6417    0.6924   -0.0393 N.am      1 <0>        -0.6232
     13 C9          3.8117    1.9023   -0.0246 C.3       1 <0>         0.1459
     14 C10         6.1063    0.6616   -0.0540 C.3       1 <0>         0.1614
     15 C11         6.6145   -0.0828    1.1841 C.3       1 <0>        -0.1590
     16 C12         8.1416   -0.1776    1.1194 C.3       1 <0>        -0.1400
     17 C13         8.5495   -0.8710   -0.1822 C.3       1 <0>        -0.0118
     18 N3          8.0569   -0.0973   -1.3282 N.4       1 <0>        -0.4977
     19 C14         6.5896   -0.0629   -1.3122 C.3       1 <0>        -0.0317
     20 H1         -0.9605    1.9026    0.0260 H         1 <0>         0.1475
     21 H2          1.1466    3.1728    0.0078 H         1 <0>         0.1423
     22 H3         -0.9265   -0.5555    0.0079 H         1 <0>         0.1418
     23 H4         -0.7672   -2.3845   -0.0036 H         1 <0>         0.4004
     24 H5          0.0940   -3.8270   -0.0203 H         1 <0>         0.4101
     25 H6          4.0028    2.4984   -0.9169 H         1 <0>         0.1013
     26 H7          4.0205    2.4888    0.8701 H         1 <0>         0.1032
     27 H8          6.4918    1.6811   -0.0503 H         1 <0>         0.1151
     28 H9          6.3208    0.4605    2.0822 H         1 <0>         0.0980
     29 H10         6.1877   -1.0855    1.2073 H         1 <0>         0.0997
     30 H11         8.5700    0.8243    1.1478 H         1 <0>         0.0909
     31 H12         8.5068   -0.7546    1.9691 H         1 <0>         0.1185
     32 H13         9.6362   -0.9404   -0.2314 H         1 <0>         0.1380
     33 H14         8.1208   -1.8728   -0.2095 H         1 <0>         0.1341
     34 H15         8.4150    0.8446   -1.2757 H         1 <0>         0.4267
     35 H16         6.2026   -1.0819   -1.3154 H         1 <0>         0.1449
     36 H17         6.2293    0.4644   -2.1955 H         1 <0>         0.1360
     37 H18         8.3729   -0.5279   -2.1843 H         1 <0>         0.4361
@<TRIPOS>BOND
     1    1    6 ar
     2    1    2 ar
     3    1   20 1
     4    2    3 ar
     5    2   21 1
     6    3   13 1
     7    3    4 ar
     8    4    5 ar
     9    4   10 1
    10    5    6 ar
    11    5    7 1
    12    6   22 1
    13    7    8 2
    14    7    9 am
    15    9   23 1
    16    9   24 1
    17   10   11 2
    18   10   12 am
    19   12   13 1
    20   12   14 1
    21   13   25 1
    22   13   26 1
    23   14   19 1
    24   14   15 1
    25   14   27 1
    26   15   16 1
    27   15   28 1
    28   15   29 1
    29   16   17 1
    30   16   30 1
    31   16   31 1
    32   17   18 1
    33   17   32 1
    34   17   33 1
    35   18   19 1
    36   18   34 1
    37   18   37 1
    38   19   35 1
    39   19   36 1
@<TRIPOS>MOLECULE
CHEMBL597890
   37    39     0     0     0
SMALL
USER_CHARGES

@<TRIPOS>ATOM
      1 C1         -0.0167    1.3779    0.0096 C.ar      1 <0>        -0.0854
      2 C2          1.1693    2.0931    0.0021 C.ar      1 <0>        -0.0760
      3 C3          2.3786    1.4315   -0.0130 C.ar      1 <0>        -0.0921
      4 C4          2.4206    0.0389   -0.0209 C.ar      1 <0>        -0.1108
      5 C5          1.2153   -0.6868   -0.0133 C.ar      1 <0>        -0.0644
      6 C6          0.0021   -0.0041    0.0020 C.ar      1 <0>        -0.0926
      7 C7          1.2370   -2.1661   -0.0219 C.2       1 <0>         0.5431
      8 O1          2.2982   -2.7583   -0.0357 O.2       1 <0>        -0.4955
      9 N1          0.0798   -2.8571   -0.0146 N.am      1 <0>        -0.8507
     10 C8          3.8352   -0.3832   -0.0372 C.2       1 <0>         0.5550
     11 O2          4.2160   -1.5374   -0.0471 O.2       1 <0>        -0.4703
     12 N2          4.6417    0.6924   -0.0393 N.am      1 <0>        -0.6234
     13 C9          3.8117    1.9023   -0.0246 C.3       1 <0>         0.1448
     14 C10         6.1063    0.6616   -0.0540 C.3       1 <0>         0.1663
     15 C11         6.5905   -0.0720   -1.3080 C.3       1 <0>        -0.1708
     16 C12         8.1173   -0.1702   -1.2772 C.3       1 <0>         0.0005
     17 N3          8.5396   -0.9101   -0.0819 N.4       1 <0>        -0.5078
     18 C13         8.1412   -0.1758    1.1250 C.3       1 <0>         0.0006
     19 C14         6.6154   -0.0779    1.1866 C.3       1 <0>        -0.1708
     20 H1         -0.9605    1.9026    0.0260 H         1 <0>         0.1467
     21 H2          1.1466    3.1728    0.0078 H         1 <0>         0.1417
     22 H3         -0.9265   -0.5555    0.0079 H         1 <0>         0.1409
     23 H4         -0.7672   -2.3845   -0.0036 H         1 <0>         0.4003
     24 H5          0.0940   -3.8270   -0.0203 H         1 <0>         0.4095
     25 H6          4.0028    2.4984   -0.9169 H         1 <0>         0.1006
     26 H7          4.0205    2.4888    0.8701 H         1 <0>         0.1006
     27 H8          6.4923    1.6810   -0.0547 H         1 <0>         0.1097
     28 H9          6.1618   -1.0739   -1.3320 H         1 <0>         0.1060
     29 H10         6.2791    0.4792   -2.1953 H         1 <0>         0.1155
     30 H11         8.4654   -0.6918   -2.1687 H         1 <0>         0.1378
     31 H12         8.5450    0.8321   -1.2535 H         1 <0>         0.1330
     32 H13         8.1041   -1.8203   -0.0797 H         1 <0>         0.4323
     33 H14         8.5070   -0.7016    2.0070 H         1 <0>         0.1378
     34 H15         8.5684    0.8266    1.0975 H         1 <0>         0.1330
     35 H16         6.3217    0.4692    2.0825 H         1 <0>         0.1155
     36 H17         6.1871   -1.0798    1.2144 H         1 <0>         0.1057
     37 H18         9.5426   -1.0194   -0.0922 H         1 <0>         0.4334
@<TRIPOS>BOND
     1    1    6 ar
     2    1    2 ar
     3    1   20 1
     4    2    3 ar
     5    2   21 1
     6    3   13 1
     7    3    4 ar
     8    4    5 ar
     9    4   10 1
    10    5    6 ar
    11    5    7 1
    12    6   22 1
    13    7    8 2
    14    7    9 am
    15    9   23 1
    16    9   24 1
    17   10   11 2
    18   10   12 am
    19   12   13 1
    20   12   14 1
    21   13   25 1
    22   13   26 1
    23   14   19 1
    24   14   15 1
    25   14   27 1
    26   15   16 1
    27   15   28 1
    28   15   29 1
    29   16   17 1
    30   16   30 1
    31   16   31 1
    32   17   18 1
    33   17   32 1
    34   17   37 1
    35   18   19 1
    36   18   33 1
    37   18   34 1
    38   19   35 1
    39   19   36 1
@<TRIPOS>MOLECULE
CHEMBL545507
   58    62     0     0     0
SMALL
USER_CHARGES

@<TRIPOS>ATOM
      1 C1          5.0526   -6.9849   -0.0871 C.ar      1 <0>        -0.0931
      2 C2          6.2401   -6.2684   -0.0968 C.ar      1 <0>        -0.1168
      3 C3          6.2287   -4.8897   -0.0914 C.ar      1 <0>        -0.0541
      4 C4          5.0117   -4.2101   -0.0760 C.ar      1 <0>        -0.1287
      5 C5          3.8059   -4.9401   -0.0661 C.ar      1 <0>        -0.0057
      6 C6          3.8380   -6.3304   -0.0718 C.ar      1 <0>        -0.0856
      7 C7          2.5314   -4.1951   -0.0495 C.ar      1 <0>         0.1489
      8 C8          2.5649   -2.7940   -0.0439 C.ar      1 <0>         0.1069
      9 C9          1.3594   -2.0905   -0.0281 C.ar      1 <0>        -0.0838
     10 C10         0.1781   -2.8055   -0.0186 C.ar      1 <0>        -0.1567
     11 C11         0.2194   -4.1984   -0.0249 C.ar      1 <0>         0.3378
     12 N1          1.3716   -4.8431   -0.0403 N.ar      1 <0>        -0.4328
     13 N2         -0.9732   -4.9217   -0.0154 N.am      1 <0>        -0.6588
     14 C12        -0.9476   -6.2648   -0.1249 C.2       1 <0>         0.5052
     15 O1          0.1134   -6.8520   -0.1388 O.2       1 <0>        -0.4570
     16 C13        -2.2375   -7.0369   -0.2300 C.3       1 <0>         0.0373
     17 N3         -1.9419   -8.4717   -0.3383 N.3       1 <0>        -0.5227
     18 C14        -1.2453   -8.7721   -1.5957 C.3       1 <0>         0.0499
     19 C15        -0.8256  -10.2437   -1.6089 C.3       1 <0>        -0.1319
     20 C16        -2.0697  -11.1255   -1.4697 C.3       1 <0>         0.0270
     21 C17        -2.8031  -10.7592   -0.1765 C.3       1 <0>        -0.1343
     22 C18        -3.1655   -9.2727   -0.2047 C.3       1 <0>         0.0577
     23 N4         -1.6677  -12.5377   -1.4231 N.4       1 <0>        -0.3917
     24 C19        -2.8685  -13.4106   -1.3759 C.3       1 <0>        -0.0059
     25 C20        -2.3377  -14.7719   -1.8913 C.3       1 <0>        -0.1454
     26 C21        -1.3391  -14.3575   -2.9964 C.3       1 <0>        -0.1447
     27 C22        -0.9507  -12.9050   -2.6634 C.3       1 <0>        -0.0089
     28 N5          3.7674   -2.1074   -0.0542 N.am      1 <0>        -0.6360
     29 C23         4.9544   -2.7404   -0.0692 C.2       1 <0>         0.5567
     30 O2          5.9854   -2.0940   -0.0775 O.2       1 <0>        -0.5108
     31 H1          5.0789   -8.0646   -0.0961 H         1 <0>         0.1319
     32 H2          7.1827   -6.7954   -0.1084 H         1 <0>         0.1362
     33 H3          7.1578   -4.3391   -0.0987 H         1 <0>         0.1441
     34 H4          2.9172   -6.8948   -0.0646 H         1 <0>         0.1480
     35 H5          1.3509   -1.0106   -0.0231 H         1 <0>         0.1535
     36 H6         -0.7704   -2.2891   -0.0060 H         1 <0>         0.1487
     37 H7         -1.8209   -4.4581    0.0701 H         1 <0>         0.4202
     38 H8         -2.8424   -6.8566    0.6586 H         1 <0>         0.1148
     39 H9         -2.7850   -6.7109   -1.1144 H         1 <0>         0.0744
     40 H10        -1.9119   -8.5770   -2.4358 H         1 <0>         0.0413
     41 H11        -0.3604   -8.1413   -1.6803 H         1 <0>         0.1149
     42 H12        -0.3224  -10.4702   -2.5489 H         1 <0>         0.0907
     43 H13        -0.1481  -10.4364   -0.7771 H         1 <0>         0.0975
     44 H14        -2.7295  -10.9615   -2.3216 H         1 <0>         0.1319
     45 H15        -3.7127  -11.3540   -0.0930 H         1 <0>         0.0927
     46 H16        -2.1567  -10.9600    0.6779 H         1 <0>         0.0968
     47 H17        -3.6752   -9.0054    0.7209 H         1 <0>         0.0989
     48 H18        -3.8231   -9.0752   -1.0513 H         1 <0>         0.0482
     49 H19        -3.2368  -13.5033   -0.3542 H         1 <0>         0.1349
     50 H20        -3.6486  -13.0278   -2.0339 H         1 <0>         0.1318
     51 H21        -1.8282  -15.3139   -1.0946 H         1 <0>         0.0981
     52 H22        -3.1485  -15.3692   -2.3084 H         1 <0>         0.1160
     53 H23        -0.4588  -14.9998   -2.9711 H         1 <0>         0.1050
     54 H24        -1.8162  -14.4066   -3.9752 H         1 <0>         0.1028
     55 H25        -1.2522  -12.2444   -3.4762 H         1 <0>         0.1285
     56 H26         0.1255  -12.8356   -2.5046 H         1 <0>         0.1319
     57 H27        -1.0817  -12.7067   -0.6193 H         1 <0>         0.4261
     58 H28         3.7535   -1.1375   -0.0502 H         1 <0>         0.4180
@<TRIPOS>BOND
     1    1    6 ar
     2    1    2 ar
     3    1   31 1
     4    2    3 ar
     5    2   32 1
     6    3    4 ar
     7    3   33 1
     8    4   29 1
     9    4    5 ar
    10    5    6 ar
    11    5    7 1
    12    6   34 1
    13    7   12 ar
    14    7    8 ar
    15    8    9 ar
    16    8   28 1
    17    9   10 ar
    18    9   35 1
    19   10   11 ar
    20   10   36 1
    21   11   12 ar
    22   11   13 1
    23   13   14 am
    24   13   37 1
    25   14   15 2
    26   14   16 1
    27   16   17 1
    28   16   38 1
    29   16   39 1
    30   17   22 1
    31   17   18 1
    32   18   19 1
    33   18   40 1
    34   18   41 1
    35   19   20 1
    36   19   42 1
    37   19   43 1
    38   20   21 1
    39   20   23 1
    40   20   44 1
    41   21   22 1
    42   21   45 1
    43   21   46 1
    44   22   47 1
    45   22   48 1
    46   23   27 1
    47   23   24 1
    48   23   57 1
    49   24   25 1
    50   24   49 1
    51   24   50 1
    52   25   26 1
    53   25   51 1
    54   25   52 1
    55   26   27 1
    56   26   53 1
    57   26   54 1
    58   27   55 1
    59   27   56 1
    60   28   29 am
    61   28   58 1
    62   29   30 2
@<TRIPOS>MOLECULE
CHEMBL597889
   34    36     0     0     0
SMALL
USER_CHARGES

@<TRIPOS>ATOM
      1 C1         -0.0167    1.3779    0.0096 C.ar      1 <0>        -0.0817
      2 C2          1.1693    2.0931    0.0021 C.ar      1 <0>        -0.0752
      3 C3          2.3786    1.4315   -0.0130 C.ar      1 <0>        -0.0897
      4 C4          2.4206    0.0389   -0.0209 C.ar      1 <0>        -0.1149
      5 C5          1.2153   -0.6868   -0.0133 C.ar      1 <0>        -0.0622
      6 C6          0.0021   -0.0041    0.0020 C.ar      1 <0>        -0.0924
      7 C7          1.2370   -2.1661   -0.0219 C.2       1 <0>         0.5444
      8 O1          2.2982   -2.7583   -0.0357 O.2       1 <0>        -0.4988
      9 N1          0.0798   -2.8571   -0.0146 N.am      1 <0>        -0.8495
     10 C8          3.8352   -0.3832   -0.0372 C.2       1 <0>         0.5574
     11 O2          4.2160   -1.5374   -0.0471 O.2       1 <0>        -0.4794
     12 N2          4.6417    0.6924   -0.0393 N.am      1 <0>        -0.6243
     13 C9          3.8117    1.9023   -0.0246 C.3       1 <0>         0.1433
     14 C10         6.1063    0.6616   -0.0540 C.3       1 <0>         0.1561
     15 C11         6.6136   -0.1592   -1.2618 C.3       1 <0>        -0.1644
     16 C12         7.8226   -0.9295   -0.6739 C.3       1 <0>         0.0025
     17 N3          7.3750   -1.2656    0.7019 N.4       1 <0>        -0.5145
     18 C13         6.6378   -0.0788    1.1872 C.3       1 <0>        -0.0207
     19 H1         -0.9605    1.9026    0.0260 H         1 <0>         0.1481
     20 H2          1.1466    3.1728    0.0078 H         1 <0>         0.1433
     21 H3         -0.9265   -0.5555    0.0079 H         1 <0>         0.1420
     22 H4         -0.7672   -2.3845   -0.0036 H         1 <0>         0.4010
     23 H5          0.0940   -3.8270   -0.0203 H         1 <0>         0.4102
     24 H6          4.0028    2.4984   -0.9169 H         1 <0>         0.1054
     25 H7          4.0205    2.4888    0.8701 H         1 <0>         0.1047
     26 H8          6.5050    1.6754   -0.0893 H         1 <0>         0.1391
     27 H9          5.8461   -0.8517   -1.6073 H         1 <0>         0.1110
     28 H10         6.9320    0.4997   -2.0696 H         1 <0>         0.1239
     29 H11         8.0170   -1.8359   -1.2474 H         1 <0>         0.1410
     30 H12         8.7073   -0.2935   -0.6460 H         1 <0>         0.1398
     31 H13         6.7659   -2.0698    0.6829 H         1 <0>         0.4399
     32 H14         7.3089    0.5714    1.7484 H         1 <0>         0.1457
     33 H15         5.8055   -0.3911    1.8181 H         1 <0>         0.1349
     34 H16         8.1726   -1.4455    1.2931 H         1 <0>         0.4338
@<TRIPOS>BOND
     1    1    6 ar
     2    1    2 ar
     3    1   19 1
     4    2    3 ar
     5    2   20 1
     6    3   13 1
     7    3    4 ar
     8    4    5 ar
     9    4   10 1
    10    5    6 ar
    11    5    7 1
    12    6   21 1
    13    7    8 2
    14    7    9 am
    15    9   22 1
    16    9   23 1
    17   10   11 2
    18   10   12 am
    19   12   13 1
    20   12   14 1
    21   13   24 1
    22   13   25 1
    23   14   18 1
    24   14   15 1
    25   14   26 1
    26   15   16 1
    27   15   27 1
    28   15   28 1
    29   16   17 1
    30   16   29 1
    31   16   30 1
    32   17   18 1
    33   17   31 1
    34   17   34 1
    35   18   32 1
    36   18   33 1
@<TRIPOS>MOLECULE
CHEMBL597889__1
   34    36     0     0     0
SMALL
USER_CHARGES

@<TRIPOS>ATOM
      1 C1         -0.0167    1.3779    0.0096 C.ar      1 <0>        -0.0814
      2 C2          1.1693    2.0931    0.0021 C.ar      1 <0>        -0.0752
      3 C3          2.3786    1.4315   -0.0130 C.ar      1 <0>        -0.0894
      4 C4          2.4206    0.0389   -0.0209 C.ar      1 <0>        -0.1148
      5 C5          1.2153   -0.6868   -0.0133 C.ar      1 <0>        -0.0619
      6 C6          0.0021   -0.0041    0.0020 C.ar      1 <0>        -0.0925
      7 C7          1.2370   -2.1661   -0.0219 C.2       1 <0>         0.5448
      8 O1          2.2982   -2.7583   -0.0357 O.2       1 <0>        -0.4992
      9 N1          0.0798   -2.8571   -0.0146 N.am      1 <0>        -0.8494
     10 C8          3.8352   -0.3832   -0.0372 C.2       1 <0>         0.5593
     11 O2          4.2160   -1.5374   -0.0471 O.2       1 <0>        -0.4782
     12 N2          4.6417    0.6924   -0.0393 N.am      1 <0>        -0.6234
     13 C9          3.8117    1.9023   -0.0246 C.3       1 <0>         0.1428
     14 C10         6.1063    0.6616   -0.0540 C.3       1 <0>         0.1541
     15 C11         6.6373   -0.1731    1.1339 C.3       1 <0>        -0.1571
     16 C12         6.8937   -1.5611    0.4949 C.3       1 <0>        -0.0209
     17 N3          7.4099   -1.2231   -0.8562 N.4       1 <0>        -0.5101
     18 C13         6.6130   -0.0643   -1.3140 C.3       1 <0>        -0.0199
     19 H1         -0.9605    1.9026    0.0260 H         1 <0>         0.1482
     20 H2          1.1466    3.1728    0.0078 H         1 <0>         0.1434
     21 H3         -0.9265   -0.5555    0.0079 H         1 <0>         0.1420
     22 H4         -0.7672   -2.3845   -0.0036 H         1 <0>         0.4011
     23 H5          0.0940   -3.8270   -0.0203 H         1 <0>         0.4103
     24 H6          4.0028    2.4984   -0.9169 H         1 <0>         0.1048
     25 H7          4.0205    2.4888    0.8701 H         1 <0>         0.1058
     26 H8          6.5057    1.6750   -0.0148 H         1 <0>         0.1390
     27 H9          7.5644    0.2511    1.5196 H         1 <0>         0.1116
     28 H10         5.8872   -0.2438    1.9216 H         1 <0>         0.1189
     29 H11         7.6400   -2.1149    1.0645 H         1 <0>         0.1354
     30 H12         5.9657   -2.1281    0.4214 H         1 <0>         0.1662
     31 H13         8.3865   -0.9748   -0.8034 H         1 <0>         0.4287
     32 H14         5.7675   -0.4074   -1.9102 H         1 <0>         0.1349
     33 H15         7.2382    0.6068   -1.9030 H         1 <0>         0.1453
     34 H16         7.2813   -2.0033   -1.4830 H         1 <0>         0.4365
@<TRIPOS>BOND
     1    1    6 ar
     2    1    2 ar
     3    1   19 1
     4    2    3 ar
     5    2   20 1
     6    3   13 1
     7    3    4 ar
     8    4    5 ar
     9    4   10 1
    10    5    6 ar
    11    5    7 1
    12    6   21 1
    13    7    8 2
    14    7    9 am
    15    9   22 1
    16    9   23 1
    17   10   11 2
    18   10   12 am
    19   12   13 1
    20   12   14 1
    21   13   24 1
    22   13   25 1
    23   14   18 1
    24   14   15 1
    25   14   26 1
    26   15   16 1
    27   15   27 1
    28   15   28 1
    29   16   17 1
    30   16   29 1
    31   16   30 1
    32   17   18 1
    33   17   31 1
    34   17   34 1
    35   18   32 1
    36   18   33 1
@<TRIPOS>MOLECULE
CHEMBL597888
   37    39     0     0     0
SMALL
USER_CHARGES

@<TRIPOS>ATOM
      1 C1         -0.0167    1.3779    0.0096 C.ar      1 <0>        -0.0960
      2 C2          1.1693    2.0931    0.0021 C.ar      1 <0>        -0.0780
      3 C3          2.3786    1.4315   -0.0130 C.ar      1 <0>        -0.0913
      4 C4          2.4206    0.0389   -0.0209 C.ar      1 <0>        -0.0996
      5 C5          1.2153   -0.6868   -0.0133 C.ar      1 <0>        -0.0697
      6 C6          0.0021   -0.0041    0.0020 C.ar      1 <0>        -0.0964
      7 C7          1.2370   -2.1661   -0.0219 C.2       1 <0>         0.5395
      8 O1          2.2982   -2.7583   -0.0357 O.2       1 <0>        -0.4841
      9 N1          0.0798   -2.8571   -0.0146 N.am      1 <0>        -0.8552
     10 C8          3.8352   -0.3832   -0.0372 C.2       1 <0>         0.5454
     11 O2          4.2160   -1.5374   -0.0471 O.2       1 <0>        -0.4662
     12 N2          4.6417    0.6924   -0.0393 N.am      1 <0>        -0.6191
     13 C9          3.8117    1.9023   -0.0246 C.3       1 <0>         0.1422
     14 C10         6.1063    0.6616   -0.0540 C.3       1 <0>         0.1747
     15 C11         6.5886   -0.0629   -1.3123 C.3       1 <0>        -0.1356
     16 C12         8.1182   -0.0951   -1.3276 C.3       1 <0>        -0.1139
     17 C13         8.6252   -0.8341   -0.0876 C.3       1 <0>        -0.1240
     18 C14         8.1429   -0.1096    1.1707 C.3       1 <0>        -0.1139
     19 C15         6.6133   -0.0775    1.1860 C.3       1 <0>        -0.1356
     20 H1         -0.9605    1.9026    0.0260 H         1 <0>         0.1414
     21 H2          1.1466    3.1728    0.0078 H         1 <0>         0.1380
     22 H3         -0.9265   -0.5555    0.0079 H         1 <0>         0.1365
     23 H4         -0.7672   -2.3845   -0.0036 H         1 <0>         0.3973
     24 H5          0.0940   -3.8270   -0.0203 H         1 <0>         0.4065
     25 H6          4.0028    2.4984   -0.9169 H         1 <0>         0.0960
     26 H7          4.0205    2.4888    0.8701 H         1 <0>         0.0960
     27 H8          6.4911    1.6814   -0.0519 H         1 <0>         0.0904
     28 H9          6.2037   -1.0827   -1.3144 H         1 <0>         0.0804
     29 H10         6.2274    0.4636   -2.1957 H         1 <0>         0.0631
     30 H11         8.4618   -0.6113   -2.2240 H         1 <0>         0.0666
     31 H12         8.5031    0.9247   -1.3255 H         1 <0>         0.0625
     32 H13         8.2403   -1.8539   -0.0897 H         1 <0>         0.0654
     33 H14         9.7149   -0.8570   -0.0985 H         1 <0>         0.0640
     34 H15         8.5041   -0.6361    2.0541 H         1 <0>         0.0666
     35 H16         8.5277    0.9102    1.1728 H         1 <0>         0.0625
     36 H17         6.2697    0.4387    2.0825 H         1 <0>         0.0631
     37 H18         6.2284   -1.0972    1.1839 H         1 <0>         0.0805
@<TRIPOS>BOND
     1    1    6 ar
     2    1    2 ar
     3    1   20 1
     4    2    3 ar
     5    2   21 1
     6    3   13 1
     7    3    4 ar
     8    4    5 ar
     9    4   10 1
    10    5    6 ar
    11    5    7 1
    12    6   22 1
    13    7    8 2
    14    7    9 am
    15    9   23 1
    16    9   24 1
    17   10   11 2
    18   10   12 am
    19   12   13 1
    20   12   14 1
    21   13   25 1
    22   13   26 1
    23   14   19 1
    24   14   15 1
    25   14   27 1
    26   15   16 1
    27   15   28 1
    28   15   29 1
    29   16   17 1
    30   16   30 1
    31   16   31 1
    32   17   18 1
    33   17   32 1
    34   17   33 1
    35   18   19 1
    36   18   34 1
    37   18   35 1
    38   19   36 1
    39   19   37 1
@<TRIPOS>MOLECULE
CHEMBL47508
   47    50     0     0     0
SMALL
USER_CHARGES

@<TRIPOS>ATOM
      1 C1         -0.0169    1.3943    0.0097 C.ar      1 <0>        -0.1114
      2 C2          1.1536    2.0973    0.0023 C.ar      1 <0>        -0.0703
      3 C3          2.3753    1.4238   -0.0130 C.ar      1 <0>        -0.0720
      4 C4          3.6457    2.1736   -0.0205 C.ar      1 <0>        -0.0149
      5 C5          3.6721    3.5643   -0.0126 C.ar      1 <0>        -0.0865
      6 C6          4.8833    4.2244   -0.0196 C.ar      1 <0>        -0.1149
      7 C7          6.0754    3.5118   -0.0350 C.ar      1 <0>         0.0966
      8 C8          6.0685    2.1303   -0.0431 C.ar      1 <0>        -0.0840
      9 C9          4.8541    1.4473   -0.0357 C.ar      1 <0>        -0.1094
     10 C10         4.8003   -0.0228   -0.0433 C.2       1 <0>         0.5603
     11 N1          3.6164   -0.6609   -0.0363 N.am      1 <0>        -0.6381
     12 C11         2.4093    0.0200   -0.0209 C.ar      1 <0>         0.1740
     13 C12         1.2151   -0.6889   -0.0137 C.ar      1 <0>        -0.0942
     14 C13         0.0021   -0.0041    0.0020 C.ar      1 <0>        -0.0892
     15 C14        -1.2692   -0.7579    0.0102 C.2       1 <0>         0.5595
     16 O1         -1.2552   -1.9734    0.0035 O.2       1 <0>        -0.5261
     17 N2         -2.4441   -0.0977    0.0250 N.am      1 <0>        -0.7241
     18 C15        -3.7042   -0.8449    0.0330 C.3       1 <0>         0.1210
     19 C16        -4.8785    0.1358    0.0496 C.3       1 <0>         0.0437
     20 N3         -6.1421   -0.6135    0.0577 N.3       1 <0>        -0.5334
     21 C17        -6.3267   -1.3487   -1.2020 C.3       1 <0>         0.0112
     22 C18        -7.6225   -2.1606   -1.1275 C.3       1 <0>         0.0625
     23 O2         -8.7151   -1.2808   -0.8490 O.3       1 <0>        -0.3847
     24 C19        -8.5685   -0.5491    0.3710 C.3       1 <0>         0.0624
     25 C20        -7.2822    0.2791    0.3117 C.3       1 <0>         0.0186
     26 O3          5.8334   -0.6656   -0.0565 O.2       1 <0>        -0.5100
     27 F1          7.2522    4.1755   -0.0427 F         1 <0>        -0.1293
     28 H1         -0.9603    1.9198    0.0261 H         1 <0>         0.1344
     29 H2          1.1337    3.1771    0.0079 H         1 <0>         0.1431
     30 H3          2.7488    4.1245   -0.0014 H         1 <0>         0.1483
     31 H4          4.9048    5.3042   -0.0135 H         1 <0>         0.1489
     32 H5          6.9993    1.5827   -0.0551 H         1 <0>         0.1554
     33 H6          1.2268   -1.7688   -0.0195 H         1 <0>         0.1498
     34 H7         -2.4553    0.8723    0.0303 H         1 <0>         0.4010
     35 H8         -3.7632   -1.4674   -0.8598 H         1 <0>         0.0719
     36 H9         -3.7461   -1.4769    0.9201 H         1 <0>         0.0820
     37 H10        -4.8195    0.7583    0.9424 H         1 <0>         0.0851
     38 H11        -4.8366    0.7678   -0.8375 H         1 <0>         0.0442
     39 H12        -6.3867   -0.6426   -2.0301 H         1 <0>         0.0463
     40 H13        -5.4837   -2.0221   -1.3573 H         1 <0>         0.0911
     41 H14        -7.7929   -2.6624   -2.0800 H         1 <0>         0.1005
     42 H15        -7.5417   -2.9031   -0.3336 H         1 <0>         0.0623
     43 H16        -9.4230    0.1147    0.5023 H         1 <0>         0.1005
     44 H17        -8.5152   -1.2447    1.2085 H         1 <0>         0.0619
     45 H18        -7.1368    0.7941    1.2614 H         1 <0>         0.0890
     46 H19        -7.3575    1.0113   -0.4922 H         1 <0>         0.0457
     47 H20         3.6070   -1.6308   -0.0418 H         1 <0>         0.4210
@<TRIPOS>BOND
     1    1   14 ar
     2    1    2 ar
     3    1   28 1
     4    2    3 ar
     5    2   29 1
     6    3   12 ar
     7    3    4 1
     8    4    9 ar
     9    4    5 ar
    10    5    6 ar
    11    5   30 1
    12    6    7 ar
    13    6   31 1
    14    7    8 ar
    15    7   27 1
    16    8    9 ar
    17    8   32 1
    18    9   10 1
    19   10   11 am
    20   10   26 2
    21   11   12 1
    22   11   47 1
    23   12   13 ar
    24   13   14 ar
    25   13   33 1
    26   14   15 1
    27   15   16 2
    28   15   17 am
    29   17   18 1
    30   17   34 1
    31   18   19 1
    32   18   35 1
    33   18   36 1
    34   19   20 1
    35   19   37 1
    36   19   38 1
    37   20   25 1
    38   20   21 1
    39   21   22 1
    40   21   39 1
    41   21   40 1
    42   22   23 1
    43   22   41 1
    44   22   42 1
    45   23   24 1
    46   24   25 1
    47   24   43 1
    48   24   44 1
    49   25   45 1
    50   25   46 1
@<TRIPOS>MOLECULE
CHEMBL47508__1
   48    51     0     0     0
SMALL
USER_CHARGES

@<TRIPOS>ATOM
      1 C1         -0.0169    1.3943    0.0097 C.ar      1 <0>        -0.1123
      2 C2          1.1536    2.0973    0.0023 C.ar      1 <0>        -0.0703
      3 C3          2.3753    1.4238   -0.0130 C.ar      1 <0>        -0.0592
      4 C4          3.6457    2.1736   -0.0205 C.ar      1 <0>        -0.0255
      5 C5          3.6721    3.5643   -0.0126 C.ar      1 <0>        -0.0834
      6 C6          4.8833    4.2244   -0.0196 C.ar      1 <0>        -0.1150
      7 C7          6.0754    3.5118   -0.0350 C.ar      1 <0>         0.1047
      8 C8          6.0685    2.1303   -0.0431 C.ar      1 <0>        -0.0844
      9 C9          4.8541    1.4473   -0.0357 C.ar      1 <0>        -0.1057
     10 C10         4.8003   -0.0228   -0.0433 C.2       1 <0>         0.5597
     11 N1          3.6164   -0.6609   -0.0363 N.am      1 <0>        -0.6401
     12 C11         2.4093    0.0200   -0.0209 C.ar      1 <0>         0.1773
     13 C12         1.2151   -0.6889   -0.0137 C.ar      1 <0>        -0.0897
     14 C13         0.0021   -0.0041    0.0020 C.ar      1 <0>        -0.1039
     15 C14        -1.2692   -0.7579    0.0102 C.2       1 <0>         0.5716
     16 O1         -1.2552   -1.9734    0.0035 O.2       1 <0>        -0.5156
     17 N2         -2.4441   -0.0977    0.0250 N.am      1 <0>        -0.7298
     18 C15        -3.7042   -0.8449    0.0330 C.3       1 <0>         0.0958
     19 C16        -4.8785    0.1358    0.0496 C.3       1 <0>        -0.0219
     20 N3         -6.1421   -0.6135    0.0577 N.4       1 <0>        -0.3818
     21 C17        -6.2775   -1.3594   -1.2011 C.3       1 <0>        -0.0516
     22 C18        -7.5946   -2.1393   -1.1901 C.3       1 <0>         0.0364
     23 O2         -8.6806   -1.2281   -0.9999 O.3       1 <0>        -0.3556
     24 C19        -8.5814   -0.4601    0.2026 C.3       1 <0>         0.0354
     25 C20        -7.2661    0.3230    0.1942 C.3       1 <0>        -0.0425
     26 O3          5.8334   -0.6656   -0.0565 O.2       1 <0>        -0.5011
     27 F1          7.2522    4.1755   -0.0427 F         1 <0>        -0.1255
     28 H1         -0.9603    1.9198    0.0261 H         1 <0>         0.1310
     29 H2          1.1337    3.1771    0.0079 H         1 <0>         0.1454
     30 H3          2.7488    4.1245   -0.0014 H         1 <0>         0.1480
     31 H4          4.9048    5.3042   -0.0135 H         1 <0>         0.1511
     32 H5          6.9993    1.5827   -0.0551 H         1 <0>         0.1577
     33 H6          1.2268   -1.7688   -0.0195 H         1 <0>         0.1503
     34 H7         -2.4553    0.8723    0.0303 H         1 <0>         0.4092
     35 H8         -3.7632   -1.4674   -0.8598 H         1 <0>         0.0920
     36 H9         -3.7461   -1.4769    0.9201 H         1 <0>         0.0926
     37 H10        -4.8195    0.7583    0.9424 H         1 <0>         0.1417
     38 H11        -4.8366    0.7678   -0.8375 H         1 <0>         0.1397
     39 H12        -6.2747   -0.6622   -2.0390 H         1 <0>         0.1422
     40 H13        -5.4441   -2.0545   -1.3033 H         1 <0>         0.1454
     41 H14        -7.7177   -2.6591   -2.1402 H         1 <0>         0.1439
     42 H15        -7.5813   -2.8646   -0.3766 H         1 <0>         0.0832
     43 H16        -9.4187    0.2354    0.2605 H         1 <0>         0.1438
     44 H17        -8.6019   -1.1279    1.0638 H         1 <0>         0.0827
     45 H18        -7.1667    0.8768    1.1278 H         1 <0>         0.1448
     46 H19        -7.2630    1.0195   -0.6442 H         1 <0>         0.1411
     47 H20         3.6070   -1.6308   -0.0418 H         1 <0>         0.4218
     48 H21        -6.1456   -1.2588    0.8333 H         1 <0>         0.4264
@<TRIPOS>BOND
     1    1   14 ar
     2    1    2 ar
     3    1   28 1
     4    2    3 ar
     5    2   29 1
     6    3   12 ar
     7    3    4 1
     8    4    9 ar
     9    4    5 ar
    10    5    6 ar
    11    5   30 1
    12    6    7 ar
    13    6   31 1
    14    7    8 ar
    15    7   27 1
    16    8    9 ar
    17    8   32 1
    18    9   10 1
    19   10   11 am
    20   10   26 2
    21   11   12 1
    22   11   47 1
    23   12   13 ar
    24   13   14 ar
    25   13   33 1
    26   14   15 1
    27   15   16 2
    28   15   17 am
    29   17   18 1
    30   17   34 1
    31   18   19 1
    32   18   35 1
    33   18   36 1
    34   19   20 1
    35   19   37 1
    36   19   38 1
    37   20   25 1
    38   20   21 1
    39   20   48 1
    40   21   22 1
    41   21   39 1
    42   21   40 1
    43   22   23 1
    44   22   41 1
    45   22   42 1
    46   23   24 1
    47   24   25 1
    48   24   43 1
    49   24   44 1
    50   25   45 1
    51   25   46 1
@<TRIPOS>MOLECULE
CHEMBL1098299
   45    48     0     0     0
SMALL
USER_CHARGES

@<TRIPOS>ATOM
      1 C1         -0.0168    1.3848    0.0097 C.ar      1 <0>        -0.1664
      2 C2          1.1177    2.1322    0.0028 C.ar      1 <0>        -0.0063
      3 C3          2.3826    1.5133   -0.0126 C.ar      1 <0>        -0.2038
      4 C4          3.6910    1.9652   -0.0227 C.2       1 <0>         0.0856
      5 N1          4.4959    0.8918   -0.0362 N.pl3     1 <0>        -0.2861
      6 N2          3.7292   -0.2794   -0.0351 N.2       1 <0>        -0.2663
      7 C5          2.4541    0.0429   -0.0212 C.ar      1 <0>         0.1457
      8 C6          1.1954   -0.7094   -0.0132 C.ar      1 <0>        -0.1280
      9 C7          0.0021   -0.0041    0.0020 C.ar      1 <0>        -0.0169
     10 C8          1.1989   -2.1810   -0.0217 C.2       1 <0>         0.5637
     11 O1          2.2538   -2.7866   -0.0355 O.2       1 <0>        -0.5284
     12 N3          0.0334   -2.8577   -0.0142 N.am      1 <0>        -0.8522
     13 C9          5.8958    0.9364   -0.0493 C.ar      1 <0>         0.1590
     14 C10         6.5530    2.1598   -0.0433 C.ar      1 <0>        -0.1293
     15 C11         7.9334    2.2005   -0.0563 C.ar      1 <0>        -0.0821
     16 C12         8.6611    1.0247   -0.0759 C.ar      1 <0>        -0.1021
     17 C13         8.0097   -0.1951   -0.0819 C.ar      1 <0>        -0.0917
     18 C14         6.6295   -0.2426   -0.0627 C.ar      1 <0>        -0.1019
     19 C15        10.1673    1.0728   -0.0911 C.3       1 <0>        -0.0532
     20 C16        10.6893    0.3720   -1.3486 C.3       1 <0>        -0.1440
     21 C17        12.2191    0.3544   -1.3183 C.3       1 <0>        -0.0067
     22 N4         12.6803   -0.3679   -0.1266 N.4       1 <0>        -0.5064
     23 C18        12.2439    0.3383    1.0839 C.3       1 <0>        -0.0067
     24 C19        10.7151    0.3552    1.1460 C.3       1 <0>        -0.1440
     25 H1         -0.9709    1.8905    0.0261 H         1 <0>         0.1362
     26 H2          1.0489    3.2100    0.0089 H         1 <0>         0.1339
     27 H3          4.0075    2.9978   -0.0204 H         1 <0>         0.1925
     28 H4         -0.9323   -0.5457    0.0084 H         1 <0>         0.1375
     29 H5         -0.8078   -2.3748   -0.0032 H         1 <0>         0.4003
     30 H6          0.0357   -3.8277   -0.0198 H         1 <0>         0.4076
     31 H7          5.9852    3.0784   -0.0287 H         1 <0>         0.1381
     32 H8          8.4451    3.1515   -0.0516 H         1 <0>         0.1374
     33 H9          8.5808   -1.1116   -0.0975 H         1 <0>         0.1302
     34 H10         6.1213   -1.1955   -0.0629 H         1 <0>         0.1474
     35 H11        10.4989    2.1111   -0.0868 H         1 <0>         0.0989
     36 H12        10.3141   -0.6510   -1.3775 H         1 <0>         0.0918
     37 H13        10.3490    0.9103   -2.2332 H         1 <0>         0.1153
     38 H14        12.5941   -0.1437   -2.2123 H         1 <0>         0.1350
     39 H15        12.5933    1.3778   -1.2897 H         1 <0>         0.1317
     40 H16        12.2935   -1.2999   -0.1289 H         1 <0>         0.4283
     41 H17        12.6372   -0.1717    1.9632 H         1 <0>         0.1350
     42 H18        12.6175    1.3621    1.0613 H         1 <0>         0.1317
     43 H19        10.3931    0.8816    2.0445 H         1 <0>         0.1153
     44 H20        10.3404   -0.6681    1.1689 H         1 <0>         0.0918
     45 H21        13.6876   -0.4240   -0.1374 H         1 <0>         0.4326
@<TRIPOS>BOND
     1    1    9 ar
     2    1    2 ar
     3    1   25 1
     4    2    3 ar
     5    2   26 1
     6    3    7 ar
     7    3    4 2
     8    4    5 1
     9    4   27 1
    10    5    6 1
    11    5   13 1
    12    6    7 2
    13    7    8 ar
    14    8    9 ar
    15    8   10 1
    16    9   28 1
    17   10   11 2
    18   10   12 am
    19   12   29 1
    20   12   30 1
    21   13   18 ar
    22   13   14 ar
    23   14   15 ar
    24   14   31 1
    25   15   16 ar
    26   15   32 1
    27   16   17 ar
    28   16   19 1
    29   17   18 ar
    30   17   33 1
    31   18   34 1
    32   19   24 1
    33   19   20 1
    34   19   35 1
    35   20   21 1
    36   20   36 1
    37   20   37 1
    38   21   22 1
    39   21   38 1
    40   21   39 1
    41   22   23 1
    42   22   40 1
    43   22   45 1
    44   23   24 1
    45   23   41 1
    46   23   42 1
    47   24   43 1
    48   24   44 1
@<TRIPOS>MOLECULE
CHEMBL603135
   59    64     0     0     0
SMALL
USER_CHARGES

@<TRIPOS>ATOM
      1 C1         -2.4333   -2.7659   -2.1761 C.ar      1 <0>        -0.1454
      2 C2         -1.6084   -1.6467   -2.2660 C.ar      1 <0>        -0.0642
      3 C3         -0.2606   -1.7512   -2.0973 C.ar      1 <0>        -0.1242
      4 C4          0.3088   -3.0046   -1.8285 C.ar      1 <0>         0.2128
      5 C5         -0.5321   -4.1437   -1.7371 C.ar      1 <0>        -0.2175
      6 C6         -1.9156   -3.9992   -1.9164 C.ar      1 <0>        -0.0555
      7 C7          0.0594   -5.3914   -1.4663 C.ar      1 <0>         0.2432
      8 N1          1.3655   -5.4463   -1.3099 N.ar      1 <0>        -0.5636
      9 C8          2.1250   -4.3564   -1.4024 C.ar      1 <0>         0.5717
     10 N2          1.6267   -3.1615   -1.6541 N.ar      1 <0>        -0.5712
     11 N3          3.4913   -4.4825   -1.2275 N.pl3     1 <0>        -0.5826
     12 C9          4.3683   -3.3064   -1.3146 C.3       1 <0>         0.1137
     13 C10         5.1862   -3.2082   -0.0209 C.3       1 <0>         0.0993
     14 N4          5.7869   -4.5206    0.2558 N.am      1 <0>        -0.6084
     15 C11         4.9099   -5.6967    0.3428 C.3       1 <0>         0.0873
     16 C12         4.0913   -5.7941   -0.9453 C.3       1 <0>         0.1117
     17 C13         7.1181   -4.6435    0.4262 C.2       1 <0>         0.5649
     18 O1          7.8483   -3.6951    0.2135 O.2       1 <0>        -0.5152
     19 C14         7.6899   -5.9304    0.8713 C.ar      1 <0>        -0.1633
     20 C15         7.1130   -6.6233    1.9379 C.ar      1 <0>        -0.0542
     21 C16         7.6513   -7.8242    2.3482 C.ar      1 <0>        -0.1034
     22 C17         8.7621   -8.3454    1.7066 C.ar      1 <0>        -0.0713
     23 C18         9.3405   -7.6672    0.6505 C.ar      1 <0>        -0.1502
     24 C19         8.8081   -6.4641    0.2232 C.ar      1 <0>         0.1547
     25 F1          9.3703   -5.8040   -0.8128 F         1 <0>        -0.1198
     26 C20         7.0290   -8.5721    3.4991 C.3       1 <0>        -0.0389
     27 C21         7.5470   -8.0139    4.7996 C.2       1 <0>         0.0073
     28 C22         6.9255   -6.9875    5.3611 C.2       1 <0>         0.0975
     29 N5          7.3568   -6.4337    6.5554 N.am      1 <0>        -0.6435
     30 H1          6.8785   -5.6825    6.9398 H         1 <0>         0.4271
     31 C23         8.4401   -6.9355    7.1872 C.2       1 <0>         0.5823
     32 O2          8.8258   -6.4547    8.2379 O.2       1 <0>        -0.4969
     33 C24         9.1399   -8.0690    6.5827 C.2       1 <0>        -0.0372
     34 N6          8.6661   -8.5888    5.3928 N.pl3     1 <0>        -0.3381
     35 C25         9.4627   -9.6255    5.0340 C.2       1 <0>         0.0934
     36 C26        10.4325   -9.7824    5.9729 C.2       1 <0>        -0.0837
     37 C27        10.2464   -8.8022    6.9518 C.2       1 <0>        -0.0751
     38 Cl1        11.6891  -10.9800    5.9528 Cl        1 <0>        -0.0111
     39 Cl2         9.2738  -10.5958    3.6069 Cl        1 <0>         0.0193
     40 H2         -3.4990   -2.6536   -2.3098 H         1 <0>         0.1295
     41 H3         -2.0445   -0.6807   -2.4732 H         1 <0>         0.1320
     42 H4          0.3657   -0.8744   -2.1703 H         1 <0>         0.1365
     43 H5         -2.5657   -4.8589   -1.8488 H         1 <0>         0.1337
     44 H6         -0.5442   -6.2836   -1.3882 H         1 <0>         0.1780
     45 H7          5.0410   -3.4139   -2.1655 H         1 <0>         0.0730
     46 H8          3.7637   -2.4074   -1.4344 H         1 <0>         0.1141
     47 H9          5.9732   -2.4637   -0.1414 H         1 <0>         0.1085
     48 H10         4.5331   -2.9235    0.8040 H         1 <0>         0.0758
     49 H11         5.5144   -6.5958    0.4626 H         1 <0>         0.1031
     50 H12         4.2372   -5.5892    1.1937 H         1 <0>         0.0776
     51 H13         3.3039   -6.5375   -0.8212 H         1 <0>         0.1143
     52 H14         4.7439   -6.0828   -1.7692 H         1 <0>         0.0718
     53 H15         6.2470   -6.2187    2.4406 H         1 <0>         0.1384
     54 H16         9.1789   -9.2866    2.0335 H         1 <0>         0.1434
     55 H17        10.2073   -8.0793    0.1551 H         1 <0>         0.1472
     56 H18         5.9454   -8.4602    3.4616 H         1 <0>         0.1112
     57 H19         7.2879   -9.6285    3.4283 H         1 <0>         0.1036
     58 H20         6.0572   -6.5699    4.8732 H         1 <0>         0.1824
     59 H21        10.8490   -8.6548    7.8358 H         1 <0>         0.1742
@<TRIPOS>BOND
     1    1    6 ar
     2    1    2 ar
     3    1   40 1
     4    2    3 ar
     5    2   41 1
     6    3    4 ar
     7    3   42 1
     8    4   10 ar
     9    4    5 ar
    10    5    6 ar
    11    5    7 ar
    12    6   43 1
    13    7    8 ar
    14    7   44 1
    15    8    9 ar
    16    9   10 ar
    17    9   11 1
    18   11   16 1
    19   11   12 1
    20   12   13 1
    21   12   45 1
    22   12   46 1
    23   13   14 1
    24   13   47 1
    25   13   48 1
    26   14   15 1
    27   14   17 am
    28   15   16 1
    29   15   49 1
    30   15   50 1
    31   16   51 1
    32   16   52 1
    33   17   18 2
    34   17   19 1
    35   19   24 ar
    36   19   20 ar
    37   20   21 ar
    38   20   53 1
    39   21   22 ar
    40   21   26 1
    41   22   23 ar
    42   22   54 1
    43   23   24 ar
    44   23   55 1
    45   24   25 1
    46   26   27 1
    47   26   56 1
    48   26   57 1
    49   27   34 1
    50   27   28 2
    51   28   29 1
    52   28   58 1
    53   29   30 1
    54   29   31 am
    55   31   32 2
    56   31   33 1
    57   33   37 2
    58   33   34 1
    59   34   35 1
    60   35   36 2
    61   35   39 1
    62   36   37 1
    63   36   38 1
    64   37   59 1
@<TRIPOS>MOLECULE
CHEMBL481084
   41    43     0     0     0
SMALL
USER_CHARGES

@<TRIPOS>ATOM
      1 C1         -0.0250    1.5257    0.0075 C.3       1 <0>        -0.1821
      2 C2          0.0021   -0.0041    0.0020 C.3       1 <0>         0.1559
      3 C3          0.8515   -0.5033    1.1726 C.3       1 <0>        -0.1791
      4 C4         -1.4027   -0.5319    0.1397 C.2       1 <0>         0.2358
      5 N1         -2.2301   -0.2809    1.1877 N.pl3     1 <0>        -0.5717
      6 H1         -2.0255    0.2604    1.9663 H         1 <0>         0.4314
      7 C5         -3.4176   -0.9408    0.9363 C.ar      1 <0>         0.0556
      8 C6         -4.6175   -1.0609    1.6223 C.ar      1 <0>        -0.0798
      9 C7         -5.6472   -1.8140    1.0931 C.ar      1 <0>        -0.0918
     10 C8         -5.4985   -2.4560   -0.1225 C.ar      1 <0>        -0.0760
     11 C9         -4.3049   -2.3517   -0.8319 C.ar      1 <0>        -0.0842
     12 C10        -3.2466   -1.5851   -0.2999 C.ar      1 <0>         0.1009
     13 N2         -2.0042   -1.2914   -0.7315 N.2       1 <0>        -0.4614
     14 C11        -4.1483   -3.0364   -2.1279 C.2       1 <0>         0.5625
     15 O1         -3.1036   -2.9419   -2.7432 O.2       1 <0>        -0.5248
     16 N3         -5.1629   -3.7672   -2.6309 N.am      1 <0>        -0.8482
     17 N4          0.5820   -0.4790   -1.2614 N.4       1 <0>        -0.3777
     18 C12        -0.0985    0.1679   -2.4124 C.3       1 <0>        -0.0136
     19 C13         0.9359    0.0317   -3.5579 C.3       1 <0>        -0.1418
     20 C14         2.2845    0.2462   -2.8332 C.3       1 <0>        -0.1420
     21 C15         2.0020   -0.0760   -1.3541 C.3       1 <0>        -0.0156
     22 H2          0.9677    1.9075   -0.2308 H         1 <0>         0.1003
     23 H3         -0.7386    1.8791   -0.7368 H         1 <0>         0.0928
     24 H4         -0.3235    1.8802    0.9941 H         1 <0>         0.1059
     25 H5          0.4212   -0.1509    2.1100 H         1 <0>         0.1034
     26 H6          0.8708   -1.5931    1.1686 H         1 <0>         0.0899
     27 H7          1.8676   -0.1215    1.0730 H         1 <0>         0.1003
     28 H8         -4.7467   -0.5645    2.5727 H         1 <0>         0.1386
     29 H9         -6.5776   -1.9026    1.6343 H         1 <0>         0.1498
     30 H10        -6.3124   -3.0418   -0.5237 H         1 <0>         0.1437
     31 H11        -5.9961   -3.8426   -2.1401 H         1 <0>         0.4024
     32 H12        -5.0598   -4.2178   -3.4837 H         1 <0>         0.4105
     33 H13        -1.0194   -0.3597   -2.6609 H         1 <0>         0.1507
     34 H14        -0.3007    1.2176   -2.1994 H         1 <0>         0.1315
     35 H15         0.8907   -0.9626   -4.0022 H         1 <0>         0.0998
     36 H16         0.7777    0.8008   -4.3139 H         1 <0>         0.1155
     37 H17         3.0396   -0.4320   -3.2306 H         1 <0>         0.1061
     38 H18         2.6107    1.2809   -2.9393 H         1 <0>         0.1037
     39 H19         2.1779    0.8081   -0.7413 H         1 <0>         0.1329
     40 H20         2.6424   -0.8937   -1.0233 H         1 <0>         0.1341
     41 H21         0.5001   -1.4825   -1.3267 H         1 <0>         0.4358
@<TRIPOS>BOND
     1    1    2 1
     2    1   22 1
     3    1   23 1
     4    1   24 1
     5    2    3 1
     6    2    4 1
     7    2   17 1
     8    3   25 1
     9    3   26 1
    10    3   27 1
    11    4   13 2
    12    4    5 1
    13    5    6 1
    14    5    7 1
    15    7   12 ar
    16    7    8 ar
    17    8    9 ar
    18    8   28 1
    19    9   10 ar
    20    9   29 1
    21   10   11 ar
    22   10   30 1
    23   11   12 ar
    24   11   14 1
    25   12   13 1
    26   14   15 2
    27   14   16 am
    28   16   31 1
    29   16   32 1
    30   17   21 1
    31   17   18 1
    32   17   41 1
    33   18   19 1
    34   18   33 1
    35   18   34 1
    36   19   20 1
    37   19   35 1
    38   19   36 1
    39   20   21 1
    40   20   37 1
    41   20   38 1
    42   21   39 1
    43   21   40 1
@<TRIPOS>MOLECULE
CHEMBL481084__1
   40    42     0     0     0
SMALL
USER_CHARGES

@<TRIPOS>ATOM
      1 C1          0.0770    1.5239   -0.0248 C.3       1 <0>        -0.1400
      2 C2          0.0021   -0.0041    0.0020 C.3       1 <0>         0.1775
      3 C3          0.7229   -0.5283    1.2456 C.3       1 <0>        -0.1884
      4 C4         -1.4413   -0.4357    0.0387 C.2       1 <0>         0.3006
      5 N1         -2.3287   -0.1053    1.0130 N.pl3     1 <0>        -0.5946
      6 H1         -2.1494    0.4407    1.7944 H         1 <0>         0.4225
      7 C5         -3.5347   -0.6925    0.6816 C.ar      1 <0>         0.0350
      8 C6         -4.7895   -0.7170    1.2729 C.ar      1 <0>        -0.0793
      9 C7         -5.8232   -1.4144    0.6791 C.ar      1 <0>        -0.1153
     10 C8         -5.6240   -2.0949   -0.5081 C.ar      1 <0>        -0.0880
     11 C9         -4.3747   -2.0863   -1.1230 C.ar      1 <0>        -0.0895
     12 C10        -3.3119   -1.3772   -0.5243 C.ar      1 <0>         0.1005
     13 N2         -2.0229   -1.1758   -0.8621 N.2       1 <0>        -0.4412
     14 C11        -4.1642   -2.8118   -2.3888 C.2       1 <0>         0.5569
     15 O1         -3.0711   -2.8008   -2.9214 O.2       1 <0>        -0.5080
     16 N3         -5.1834   -3.4873   -2.9558 N.am      1 <0>        -0.8565
     17 N4          0.6451   -0.5471   -1.2020 N.3       1 <0>        -0.4856
     18 C12         2.0958   -0.2290   -1.2201 C.3       1 <0>         0.0265
     19 C13         2.6758   -1.2748   -2.2052 C.3       1 <0>        -0.1218
     20 C14         1.8455   -2.5411   -1.8935 C.3       1 <0>        -0.1332
     21 C15         0.5555   -2.0231   -1.2308 C.3       1 <0>         0.0350
     22 H2          1.1187    1.8378    0.0412 H         1 <0>         0.0732
     23 H3         -0.3554    1.8925   -0.9550 H         1 <0>         0.0749
     24 H4         -0.4790    1.9298    0.8203 H         1 <0>         0.0586
     25 H5          0.1809   -0.2161    2.1383 H         1 <0>         0.0622
     26 H6          0.7660   -1.6168    1.2088 H         1 <0>         0.0707
     27 H7          1.7352   -0.1253    1.2757 H         1 <0>         0.0795
     28 H8         -4.9584   -0.1897    2.2002 H         1 <0>         0.1281
     29 H9         -6.7966   -1.4287    1.1467 H         1 <0>         0.1383
     30 H10        -6.4416   -2.6362   -0.9607 H         1 <0>         0.1339
     31 H11        -6.0554   -3.4960   -2.5310 H         1 <0>         0.3979
     32 H12        -5.0449   -3.9647   -3.7887 H         1 <0>         0.4048
     33 H13         2.2633    0.7825   -1.5903 H         1 <0>         0.0833
     34 H14         2.5294   -0.3533   -0.2278 H         1 <0>         0.0514
     35 H15         2.5239   -0.9584   -3.2372 H         1 <0>         0.0756
     36 H16         3.7332   -1.4481   -2.0054 H         1 <0>         0.0704
     37 H17         1.6098   -3.0751   -2.8140 H         1 <0>         0.0727
     38 H18         2.3890   -3.1903   -1.2071 H         1 <0>         0.0617
     39 H19         0.4787   -2.4103   -0.2148 H         1 <0>         0.0396
     40 H20        -0.3116   -2.3312   -1.8150 H         1 <0>         0.1101
@<TRIPOS>BOND
     1    1    2 1
     2    1   22 1
     3    1   23 1
     4    1   24 1
     5    2    3 1
     6    2    4 1
     7    2   17 1
     8    3   25 1
     9    3   26 1
    10    3   27 1
    11    4   13 2
    12    4    5 1
    13    5    6 1
    14    5    7 1
    15    7   12 ar
    16    7    8 ar
    17    8    9 ar
    18    8   28 1
    19    9   10 ar
    20    9   29 1
    21   10   11 ar
    22   10   30 1
    23   11   12 ar
    24   11   14 1
    25   12   13 1
    26   14   15 2
    27   14   16 am
    28   16   31 1
    29   16   32 1
    30   17   21 1
    31   17   18 1
    32   18   19 1
    33   18   33 1
    34   18   34 1
    35   19   20 1
    36   19   35 1
    37   19   36 1
    38   20   21 1
    39   20   37 1
    40   20   38 1
    41   21   39 1
    42   21   40 1
@<TRIPOS>MOLECULE
CHEMBL540525
   51    54     0     0     0
SMALL
USER_CHARGES

@<TRIPOS>ATOM
      1 C1         -0.0166    1.3754    0.0096 C.ar      1 <0>        -0.0744
      2 C2          1.1677    2.0974    0.0022 C.ar      1 <0>        -0.1215
      3 C3          2.3848    1.4501   -0.0133 C.ar      1 <0>        -0.0437
      4 C4          2.4248    0.0566   -0.0211 C.ar      1 <0>        -0.1434
      5 C5          1.2199   -0.6754   -0.0131 C.ar      1 <0>        -0.0074
      6 C6          0.0021   -0.0041    0.0020 C.ar      1 <0>        -0.1216
      7 C7          1.2937   -2.1486   -0.0224 C.ar      1 <0>        -0.1116
      8 C8          0.1332   -2.9209   -0.0157 C.ar      1 <0>         0.0405
      9 C9          0.2250   -4.2960   -0.0251 C.ar      1 <0>        -0.7142
     10 C10         1.4665   -4.9123   -0.0411 C.ar      1 <0>         0.0120
     11 C11         2.6220   -4.1607   -0.0479 C.ar      1 <0>        -0.1765
     12 C12         2.5509   -2.7708   -0.0386 C.ar      1 <0>         0.2419
     13 N1          3.7143   -2.0194   -0.0459 N.am      1 <0>        -0.6433
     14 C13         3.7004   -0.6746   -0.0380 C.2       1 <0>         0.5588
     15 O1          4.7501   -0.0591   -0.0449 O.2       1 <0>        -0.4991
     16 S1         -1.2407   -5.2739   -0.0160 S.o2      1 <0>         2.6982
     17 O2         -0.8818   -6.5386    0.5234 O.2       1 <0>        -0.9435
     18 O3         -2.2640   -4.4667    0.5503 O.2       1 <0>        -0.9363
     19 N2         -1.6642   -5.5359   -1.5954 N.pl3     1 <0>        -1.1161
     20 C14        -0.7890   -6.3231   -2.4675 C.3       1 <0>         0.0904
     21 C15        -1.5567   -6.7307   -3.7266 C.3       1 <0>        -0.0181
     22 N3         -0.6791   -7.5200   -4.6012 N.4       1 <0>        -0.3814
     23 C16         0.4295   -6.6786   -5.0675 C.3       1 <0>        -0.0163
     24 C17         1.3906   -7.5170   -5.9130 C.3       1 <0>        -0.1462
     25 C18         0.6373   -8.0860   -7.1189 C.3       1 <0>        -0.1401
     26 C19        -0.5605   -8.9007   -6.6221 C.3       1 <0>        -0.1466
     27 C20        -1.4492   -8.0110   -5.7502 C.3       1 <0>        -0.0064
     28 H1         -0.9618    1.8978    0.0260 H         1 <0>         0.1388
     29 H2          1.1361    3.1769    0.0082 H         1 <0>         0.1399
     30 H3          3.3024    2.0196   -0.0197 H         1 <0>         0.1447
     31 H4         -0.9241   -0.5596    0.0082 H         1 <0>         0.1373
     32 H5         -0.8352   -2.4429   -0.0028 H         1 <0>         0.1529
     33 H6          1.5291   -5.9905   -0.0480 H         1 <0>         0.1482
     34 H7          3.5841   -4.6512   -0.0604 H         1 <0>         0.1469
     35 H8         -2.4918   -5.1682   -1.9430 H         1 <0>         0.4271
     36 H9          0.0777   -5.7246   -2.7482 H         1 <0>         0.0886
     37 H10        -0.4577   -7.2168   -1.9387 H         1 <0>         0.1044
     38 H11        -2.4234   -7.3292   -3.4460 H         1 <0>         0.1431
     39 H12        -1.8880   -5.8370   -4.2554 H         1 <0>         0.1393
     40 H13         0.0354   -5.8603   -5.6701 H         1 <0>         0.1315
     41 H14         0.9627   -6.2718   -4.2082 H         1 <0>         0.1316
     42 H15         2.2120   -6.8900   -6.2598 H         1 <0>         0.1128
     43 H16         1.7855   -8.3355   -5.3113 H         1 <0>         0.0895
     44 H17         0.2861   -7.2683   -7.7482 H         1 <0>         0.0820
     45 H18         1.3029   -8.7299   -7.6937 H         1 <0>         0.0951
     46 H19        -1.1336   -9.2628   -7.4756 H         1 <0>         0.1136
     47 H20        -0.2060   -9.7479   -6.0350 H         1 <0>         0.0891
     48 H21        -2.3031   -8.5879   -5.3950 H         1 <0>         0.1327
     49 H22        -1.8033   -7.1643   -6.3383 H         1 <0>         0.1301
     50 H23         4.5685   -2.4789   -0.0567 H         1 <0>         0.4211
     51 H24        -0.3094   -8.3045   -4.0854 H         1 <0>         0.4257
@<TRIPOS>BOND
     1    1    6 ar
     2    1    2 ar
     3    1   28 1
     4    2    3 ar
     5    2   29 1
     6    3    4 ar
     7    3   30 1
     8    4   14 1
     9    4    5 ar
    10    5    6 ar
    11    5    7 1
    12    6   31 1
    13    7   12 ar
    14    7    8 ar
    15    8    9 ar
    16    8   32 1
    17    9   10 ar
    18    9   16 1
    19   10   11 ar
    20   10   33 1
    21   11   12 ar
    22   11   34 1
    23   12   13 1
    24   13   14 am
    25   13   50 1
    26   14   15 2
    27   16   17 2
    28   16   18 2
    29   16   19 1
    30   19   20 1
    31   19   35 1
    32   20   21 1
    33   20   36 1
    34   20   37 1
    35   21   22 1
    36   21   38 1
    37   21   39 1
    38   22   27 1
    39   22   23 1
    40   22   51 1
    41   23   24 1
    42   23   40 1
    43   23   41 1
    44   24   25 1
    45   24   42 1
    46   24   43 1
    47   25   26 1
    48   25   44 1
    49   25   45 1
    50   26   27 1
    51   26   46 1
    52   26   47 1
    53   27   48 1
    54   27   49 1
@<TRIPOS>MOLECULE
CHEMBL610165
   41    44     0     0     0
SMALL
USER_CHARGES

@<TRIPOS>ATOM
      1 C1         -0.0166    1.3760    0.0096 C.ar      1 <0>        -0.1121
      2 C2          1.1662    2.0868    0.0021 C.ar      1 <0>        -0.0903
      3 C3          2.3967    1.4340   -0.0291 C.ar      1 <0>        -0.0812
      4 C4          2.4201    0.0605   -0.0499 C.ar      1 <0>        -0.0767
      5 C5          1.2266   -0.6678   -0.0130 C.ar      1 <0>        -0.1226
      6 C6          0.0021   -0.0041    0.0020 C.ar      1 <0>        -0.0502
      7 C7          1.2842   -2.1436    0.0500 C.2       1 <0>         0.5582
      8 O1          0.2876   -2.8040   -0.1694 O.2       1 <0>        -0.5176
      9 N1          2.4471   -2.7525    0.3513 N.am      1 <0>        -0.7292
     10 C8          3.6229   -1.9689    0.7327 C.3       1 <0>         0.1243
     11 C9          3.7168   -0.7072   -0.1204 C.3       1 <0>         0.1704
     12 N2          4.7906    0.1591    0.3818 N.am      1 <0>        -0.5745
     13 C10         4.9172    1.4937   -0.2120 C.3       1 <0>         0.0928
     14 C11         3.6334    2.2836   -0.0343 C.3       1 <0>        -0.0983
     15 C12         5.6281   -0.2566    1.3525 C.2       1 <0>         0.5123
     16 O2          5.5025   -1.3652    1.8280 O.2       1 <0>        -0.5214
     17 C13         6.7206    0.6560    1.8469 C.3       1 <0>         0.0013
     18 H1          6.2860    1.5737    2.2430 H         1 <0>         0.1683
     19 C14         7.6888    0.9893    0.6924 C.3       1 <0>        -0.1379
     20 C15         9.0754    0.9903    1.3883 C.3       1 <0>        -0.1412
     21 C16         8.9043   -0.1449    2.4283 C.3       1 <0>        -0.0071
     22 N3          7.5038   -0.0218    2.8963 N.4       1 <0>        -0.5030
     23 H2         -0.9601    1.9013    0.0260 H         1 <0>         0.1397
     24 H3          1.1376    3.1663    0.0204 H         1 <0>         0.1336
     25 H4         -0.9221   -0.5629    0.0080 H         1 <0>         0.1450
     26 H5          2.5058   -3.7200    0.3155 H         1 <0>         0.4137
     27 H6          3.5450   -1.6893    1.7833 H         1 <0>         0.0831
     28 H7          4.5201   -2.5705    0.5874 H         1 <0>         0.1082
     29 H8          3.9215   -0.9818   -1.1552 H         1 <0>         0.1100
     30 H9          5.7361    2.0259    0.2720 H         1 <0>         0.0981
     31 H10         5.1334    1.3944   -1.2758 H         1 <0>         0.0962
     32 H11         3.5550    3.0075   -0.8454 H         1 <0>         0.1028
     33 H12         3.6865    2.8268    0.9092 H         1 <0>         0.0868
     34 H13         7.6460    0.2217   -0.0803 H         1 <0>         0.1074
     35 H14         7.4667    1.9712    0.2744 H         1 <0>         0.1269
     36 H15         9.8685    0.7538    0.6789 H         1 <0>         0.1240
     37 H16         9.2650    1.9447    1.8796 H         1 <0>         0.1055
     38 H17         9.0654   -1.1159    1.9600 H         1 <0>         0.1367
     39 H18         9.5946   -0.0047    3.2601 H         1 <0>         0.1441
     40 H19         7.4740    0.5211    3.7463 H         1 <0>         0.4366
     41 H20         7.1201   -0.9392    3.0672 H         1 <0>         0.4369
@<TRIPOS>BOND
     1    1    6 ar
     2    1    2 ar
     3    1   23 1
     4    2    3 ar
     5    2   24 1
     6    3   14 1
     7    3    4 ar
     8    4   11 1
     9    4    5 ar
    10    5    6 ar
    11    5    7 1
    12    6   25 1
    13    7    8 2
    14    7    9 am
    15    9   10 1
    16    9   26 1
    17   10   11 1
    18   10   27 1
    19   10   28 1
    20   11   12 1
    21   11   29 1
    22   12   13 1
    23   12   15 am
    24   13   14 1
    25   13   30 1
    26   13   31 1
    27   14   32 1
    28   14   33 1
    29   15   16 2
    30   15   17 1
    31   17   18 1
    32   17   22 1
    33   17   19 1
    34   19   20 1
    35   19   34 1
    36   19   35 1
    37   20   21 1
    38   20   36 1
    39   20   37 1
    40   21   22 1
    41   21   38 1
    42   21   39 1
    43   22   40 1
    44   22   41 1
@<TRIPOS>MOLECULE
CHEMBL610165__1
   41    44     0     0     0
SMALL
USER_CHARGES

@<TRIPOS>ATOM
      1 C1         -0.0166    1.3760    0.0096 C.ar      1 <0>        -0.1123
      2 C2          1.1662    2.0868    0.0021 C.ar      1 <0>        -0.0903
      3 C3          2.3970    1.4338    0.0028 C.ar      1 <0>        -0.0810
      4 C4          2.4207    0.0601    0.0084 C.ar      1 <0>        -0.0760
      5 C5          1.2266   -0.6678   -0.0135 C.ar      1 <0>        -0.1224
      6 C6          0.0021   -0.0041    0.0020 C.ar      1 <0>        -0.0502
      7 C7          1.2829   -2.1428   -0.0935 C.2       1 <0>         0.5580
      8 O1          0.2903   -2.8056    0.1369 O.2       1 <0>        -0.5176
      9 N1          2.4397   -2.7483   -0.4236 N.am      1 <0>        -0.7291
     10 C8          3.6080   -1.9605   -0.8189 C.3       1 <0>         0.1244
     11 C9          3.7184   -0.7081    0.0458 C.3       1 <0>         0.1699
     12 N2          4.7825    0.1637   -0.4675 N.am      1 <0>        -0.5743
     13 C10         4.9205    1.4919    0.1382 C.3       1 <0>         0.0912
     14 C11         3.6336    2.2834   -0.0064 C.3       1 <0>        -0.0976
     15 C12         5.6018   -0.2418   -1.4578 C.2       1 <0>         0.5120
     16 O2          5.4675   -1.3456   -1.9422 O.2       1 <0>        -0.5215
     17 C13         6.6848    0.6762   -1.9632 C.3       1 <0>         0.0017
     18 H1          7.3591    0.9379   -1.1479 H         1 <0>         0.1698
     19 C14         6.0552    1.9549   -2.5549 C.3       1 <0>        -0.1391
     20 C15         6.9499    2.2464   -3.7883 C.3       1 <0>        -0.1409
     21 C16         7.2783    0.8153   -4.2819 C.3       1 <0>        -0.0071
     22 N3          7.4381    0.0154   -3.0448 N.4       1 <0>        -0.5027
     23 H2         -0.9601    1.9013    0.0260 H         1 <0>         0.1396
     24 H3          1.1374    3.1664   -0.0047 H         1 <0>         0.1336
     25 H4         -0.9221   -0.5629    0.0077 H         1 <0>         0.1449
     26 H5          2.4992   -3.7162   -0.3987 H         1 <0>         0.4138
     27 H6          4.5079   -2.5635   -0.6972 H         1 <0>         0.1086
     28 H7          3.5101   -1.6696   -1.8647 H         1 <0>         0.0828
     29 H8          3.9428   -0.9938    1.0735 H         1 <0>         0.1101
     30 H9          5.1571    1.3811    1.1964 H         1 <0>         0.0956
     31 H10         5.7301    2.0293   -0.3557 H         1 <0>         0.0986
     32 H11         3.6688    2.8368   -0.9449 H         1 <0>         0.0867
     33 H12         3.5708    2.9985    0.8138 H         1 <0>         0.1029
     34 H13         5.0252    1.7714   -2.8606 H         1 <0>         0.1067
     35 H14         6.1057    2.7758   -1.8395 H         1 <0>         0.1271
     36 H15         6.4002    2.8043   -4.5463 H         1 <0>         0.1237
     37 H16         7.8566    2.7765   -3.4965 H         1 <0>         0.1060
     38 H17         6.4587    0.4244   -4.8848 H         1 <0>         0.1362
     39 H18         8.2057    0.8149   -4.8547 H         1 <0>         0.1444
     40 H19         8.4145   -0.0371   -2.7955 H         1 <0>         0.4368
     41 H20         7.0759   -0.9148   -3.1916 H         1 <0>         0.4369
@<TRIPOS>BOND
     1    1    6 ar
     2    1    2 ar
     3    1   23 1
     4    2    3 ar
     5    2   24 1
     6    3   14 1
     7    3    4 ar
     8    4   11 1
     9    4    5 ar
    10    5    6 ar
    11    5    7 1
    12    6   25 1
    13    7    8 2
    14    7    9 am
    15    9   10 1
    16    9   26 1
    17   10   11 1
    18   10   27 1
    19   10   28 1
    20   11   12 1
    21   11   29 1
    22   12   13 1
    23   12   15 am
    24   13   14 1
    25   13   30 1
    26   13   31 1
    27   14   32 1
    28   14   33 1
    29   15   16 2
    30   15   17 1
    31   17   18 1
    32   17   22 1
    33   17   19 1
    34   19   20 1
    35   19   34 1
    36   19   35 1
    37   20   21 1
    38   20   36 1
    39   20   37 1
    40   21   22 1
    41   21   38 1
    42   21   39 1
    43   22   40 1
    44   22   41 1
@<TRIPOS>MOLECULE
CHEMBL593837
   41    44     0     0     0
SMALL
USER_CHARGES

@<TRIPOS>ATOM
      1 C1         -0.0166    1.3760    0.0096 C.ar      1 <0>        -0.1212
      2 C2          1.1662    2.0868    0.0021 C.ar      1 <0>        -0.0937
      3 C3          2.3967    1.4340   -0.0291 C.ar      1 <0>        -0.0750
      4 C4          2.4201    0.0605   -0.0499 C.ar      1 <0>        -0.0661
      5 C5          1.2266   -0.6678   -0.0130 C.ar      1 <0>        -0.1264
      6 C6          0.0021   -0.0041    0.0020 C.ar      1 <0>        -0.0569
      7 C7          1.2842   -2.1436    0.0500 C.2       1 <0>         0.5601
      8 O1          0.2876   -2.8040   -0.1694 O.2       1 <0>        -0.5340
      9 N1          2.4471   -2.7525    0.3513 N.am      1 <0>        -0.7270
     10 C8          3.6229   -1.9689    0.7327 C.3       1 <0>         0.1235
     11 C9          3.7168   -0.7072   -0.1204 C.3       1 <0>         0.1694
     12 N2          4.7906    0.1591    0.3818 N.am      1 <0>        -0.6041
     13 C10         4.9172    1.4937   -0.2120 C.3       1 <0>         0.1023
     14 C11         3.6334    2.2836   -0.0343 C.3       1 <0>        -0.0981
     15 C12         5.6281   -0.2566    1.3525 C.2       1 <0>         0.5271
     16 O2          5.5025   -1.3652    1.8280 O.2       1 <0>        -0.5285
     17 C13         6.7206    0.6560    1.8469 C.3       1 <0>        -0.1121
     18 C14         7.7060    0.9692    0.7020 C.3       1 <0>        -0.1175
     19 C15         9.0915    1.0088    1.3934 C.3       1 <0>        -0.1249
     20 C16         8.9868   -0.1336    2.4342 C.3       1 <0>        -0.1250
     21 C17         7.5350   -0.0452    2.9482 C.3       1 <0>        -0.1196
     22 H1         -0.9601    1.9013    0.0260 H         1 <0>         0.1340
     23 H2          1.1376    3.1663    0.0204 H         1 <0>         0.1297
     24 H3         -0.9221   -0.5629    0.0080 H         1 <0>         0.1400
     25 H4          2.5058   -3.7200    0.3155 H         1 <0>         0.4094
     26 H5          3.5450   -1.6893    1.7833 H         1 <0>         0.0863
     27 H6          4.5201   -2.5705    0.5874 H         1 <0>         0.1099
     28 H7          3.9215   -0.9818   -1.1552 H         1 <0>         0.0956
     29 H8          5.7361    2.0259    0.2720 H         1 <0>         0.1029
     30 H9          5.1334    1.3944   -1.2758 H         1 <0>         0.0776
     31 H10         3.5550    3.0075   -0.8454 H         1 <0>         0.0933
     32 H11         3.6865    2.8268    0.9092 H         1 <0>         0.0842
     33 H12         6.2892    1.5798    2.2324 H         1 <0>         0.1000
     34 H13         7.6780    0.1821   -0.0515 H         1 <0>         0.0718
     35 H14         7.4755    1.9358    0.2541 H         1 <0>         0.0763
     36 H15         9.8870    0.8063    0.6763 H         1 <0>         0.0706
     37 H16         9.2496    1.9677    1.8870 H         1 <0>         0.0710
     38 H17         9.1656   -1.0988    1.9604 H         1 <0>         0.0670
     39 H18         9.6910    0.0282    3.2503 H         1 <0>         0.0686
     40 H19         7.4994    0.5387    3.8680 H         1 <0>         0.0690
     41 H20         7.1400   -1.0456    3.1251 H         1 <0>         0.0906
@<TRIPOS>BOND
     1    1    6 ar
     2    1    2 ar
     3    1   22 1
     4    2    3 ar
     5    2   23 1
     6    3   14 1
     7    3    4 ar
     8    4   11 1
     9    4    5 ar
    10    5    6 ar
    11    5    7 1
    12    6   24 1
    13    7    8 2
    14    7    9 am
    15    9   10 1
    16    9   25 1
    17   10   11 1
    18   10   26 1
    19   10   27 1
    20   11   12 1
    21   11   28 1
    22   12   13 1
    23   12   15 am
    24   13   14 1
    25   13   29 1
    26   13   30 1
    27   14   31 1
    28   14   32 1
    29   15   16 2
    30   15   17 1
    31   17   21 1
    32   17   18 1
    33   17   33 1
    34   18   19 1
    35   18   34 1
    36   18   35 1
    37   19   20 1
    38   19   36 1
    39   19   37 1
    40   20   21 1
    41   20   38 1
    42   20   39 1
    43   21   40 1
    44   21   41 1
@<TRIPOS>MOLECULE
CHEMBL593837__1
   41    44     0     0     0
SMALL
USER_CHARGES

@<TRIPOS>ATOM
      1 C1         -0.0166    1.3760    0.0096 C.ar      1 <0>        -0.1212
      2 C2          1.1662    2.0868    0.0021 C.ar      1 <0>        -0.0937
      3 C3          2.3970    1.4338    0.0028 C.ar      1 <0>        -0.0744
      4 C4          2.4207    0.0601    0.0084 C.ar      1 <0>        -0.0659
      5 C5          1.2266   -0.6678   -0.0135 C.ar      1 <0>        -0.1263
      6 C6          0.0021   -0.0041    0.0020 C.ar      1 <0>        -0.0569
      7 C7          1.2829   -2.1428   -0.0935 C.2       1 <0>         0.5600
      8 O1          0.2903   -2.8056    0.1369 O.2       1 <0>        -0.5341
      9 N1          2.4397   -2.7483   -0.4236 N.am      1 <0>        -0.7269
     10 C8          3.6080   -1.9605   -0.8189 C.3       1 <0>         0.1235
     11 C9          3.7184   -0.7081    0.0458 C.3       1 <0>         0.1692
     12 N2          4.7825    0.1637   -0.4675 N.am      1 <0>        -0.6040
     13 C10         4.9205    1.4919    0.1382 C.3       1 <0>         0.1009
     14 C11         3.6336    2.2834   -0.0064 C.3       1 <0>        -0.0976
     15 C12         5.6018   -0.2418   -1.4578 C.2       1 <0>         0.5269
     16 O2          5.4675   -1.3456   -1.9422 O.2       1 <0>        -0.5286
     17 C13         6.6848    0.6762   -1.9632 C.3       1 <0>        -0.1121
     18 C14         6.0579    1.9434   -2.5804 C.3       1 <0>        -0.1175
     19 C15         6.9664    2.2646   -3.7931 C.3       1 <0>        -0.1248
     20 C16         7.3063    0.8588   -4.3473 C.3       1 <0>        -0.1253
     21 C17         7.4785   -0.0134   -3.0866 C.3       1 <0>        -0.1194
     22 H1         -0.9601    1.9013    0.0260 H         1 <0>         0.1339
     23 H2          1.1374    3.1664   -0.0047 H         1 <0>         0.1296
     24 H3         -0.9221   -0.5629    0.0077 H         1 <0>         0.1399
     25 H4          2.4992   -3.7162   -0.3987 H         1 <0>         0.4095
     26 H5          4.5079   -2.5635   -0.6972 H         1 <0>         0.1100
     27 H6          3.5101   -1.6696   -1.8647 H         1 <0>         0.0862
     28 H7          3.9428   -0.9938    1.0735 H         1 <0>         0.0957
     29 H8          5.1571    1.3811    1.1964 H         1 <0>         0.0768
     30 H9          5.7301    2.0293   -0.3557 H         1 <0>         0.1034
     31 H10         3.6688    2.8368   -0.9449 H         1 <0>         0.0848
     32 H11         3.5708    2.9985    0.8138 H         1 <0>         0.0931
     33 H12         7.3535    0.9492   -1.1469 H         1 <0>         0.1010
     34 H13         5.0384    1.7430   -2.9100 H         1 <0>         0.0710
     35 H14         6.0736    2.7646   -1.8638 H         1 <0>         0.0763
     36 H15         6.4263    2.8523   -4.5354 H         1 <0>         0.0702
     37 H16         7.8703    2.7823   -3.4721 H         1 <0>         0.0713
     38 H17         6.4884    0.4832   -4.9623 H         1 <0>         0.0666
     39 H18         8.2331    0.8885   -4.9202 H         1 <0>         0.0688
     40 H19         8.5326   -0.0743   -2.8159 H         1 <0>         0.0695
     41 H20         7.0804   -1.0121   -3.2663 H         1 <0>         0.0905
@<TRIPOS>BOND
     1    1    6 ar
     2    1    2 ar
     3    1   22 1
     4    2    3 ar
     5    2   23 1
     6    3   14 1
     7    3    4 ar
     8    4   11 1
     9    4    5 ar
    10    5    6 ar
    11    5    7 1
    12    6   24 1
    13    7    8 2
    14    7    9 am
    15    9   10 1
    16    9   25 1
    17   10   11 1
    18   10   26 1
    19   10   27 1
    20   11   12 1
    21   11   28 1
    22   12   13 1
    23   12   15 am
    24   13   14 1
    25   13   29 1
    26   13   30 1
    27   14   31 1
    28   14   32 1
    29   15   16 2
    30   15   17 1
    31   17   21 1
    32   17   18 1
    33   17   33 1
    34   18   19 1
    35   18   34 1
    36   18   35 1
    37   19   20 1
    38   19   36 1
    39   19   37 1
    40   20   21 1
    41   20   38 1
    42   20   39 1
    43   21   40 1
    44   21   41 1
@<TRIPOS>MOLECULE
CHEMBL593202
   44    47     0     0     0
SMALL
USER_CHARGES

@<TRIPOS>ATOM
      1 C1         -0.0178    1.4608    0.0101 C.3       1 <0>         0.0997
      2 N1          0.0021   -0.0041    0.0020 N.pl3     1 <0>        -0.3762
      3 C2          0.0078   -0.7920   -1.0936 C.2       1 <0>         0.0584
      4 C3          0.0272   -2.0789   -0.6760 C.2       1 <0>        -0.2403
      5 C4          0.0335   -2.0775    0.7227 C.2       1 <0>         0.0529
      6 N2          0.0246   -0.8342    1.1302 N.2       1 <0>        -0.2964
      7 C5          0.0390   -3.2983   -1.5614 C.3       1 <0>        -0.0227
      8 C6          1.4853   -3.6917   -1.8684 C.3       1 <0>        -0.1329
      9 C7          1.4971   -4.9110   -2.7539 C.2       1 <0>         0.5204
     10 O1          0.4517   -5.4158   -3.1048 O.2       1 <0>        -0.5299
     11 N3          2.6695   -5.4407   -3.1558 N.am      1 <0>        -0.6080
     12 C8          3.9498   -4.8568   -2.7433 C.3       1 <0>         0.1080
     13 C9          4.7724   -4.4554   -3.9538 C.3       1 <0>        -0.0974
     14 C10         4.5441   -5.3227   -5.1565 C.ar      1 <0>        -0.0751
     15 C11         5.3648   -5.1187   -6.2644 C.ar      1 <0>        -0.0936
     16 C12         5.2166   -5.8756   -7.4083 C.ar      1 <0>        -0.1216
     17 C13         4.2373   -6.8464   -7.4772 C.ar      1 <0>        -0.0566
     18 C14         3.4049   -7.0527   -6.3813 C.ar      1 <0>        -0.1252
     19 C15         3.5838   -6.3028   -5.2128 C.ar      1 <0>        -0.0655
     20 C16         2.7136   -6.6280   -4.0184 C.3       1 <0>         0.1692
     21 C17         1.3055   -6.9918   -4.4801 C.3       1 <0>         0.1242
     22 N4          1.3616   -8.0649   -5.4741 N.am      1 <0>        -0.7312
     23 C18         2.3291   -8.0654   -6.4257 C.2       1 <0>         0.5601
     24 O2          2.3168   -8.9052   -7.3044 O.2       1 <0>        -0.5319
     25 H1          1.0048    1.8381    0.0023 H         1 <0>         0.0755
     26 H2         -0.5450    1.8219   -0.8730 H         1 <0>         0.0879
     27 H3         -0.5280    1.8123    0.9069 H         1 <0>         0.0899
     28 H4         -0.0017   -0.4556   -2.1198 H         1 <0>         0.1728
     29 H5          0.0482   -2.9516    1.3568 H         1 <0>         0.1828
     30 H6         -0.4613   -4.1220   -1.0521 H         1 <0>         0.0797
     31 H7         -0.4826   -3.0763   -2.4924 H         1 <0>         0.0754
     32 H8          1.9856   -2.8680   -2.3777 H         1 <0>         0.0935
     33 H9          2.0069   -3.9136   -0.9374 H         1 <0>         0.0969
     34 H10         3.7613   -3.9761   -2.1294 H         1 <0>         0.0983
     35 H11         4.5061   -5.5890   -2.1581 H         1 <0>         0.0774
     36 H12         4.5269   -3.4261   -4.2154 H         1 <0>         0.0841
     37 H13         5.8284   -4.5010   -3.6874 H         1 <0>         0.0926
     38 H14         6.1290   -4.3564   -6.2267 H         1 <0>         0.1295
     39 H15         5.8691   -5.7085   -8.2525 H         1 <0>         0.1338
     40 H16         4.1183   -7.4391   -8.3721 H         1 <0>         0.1396
     41 H17         3.1451   -7.4631   -3.4665 H         1 <0>         0.0958
     42 H18         0.7189   -7.3233   -3.6233 H         1 <0>         0.1099
     43 H19         0.8323   -6.1148   -4.9216 H         1 <0>         0.0862
     44 H20         0.6982   -8.7723   -5.4554 H         1 <0>         0.4097
@<TRIPOS>BOND
     1    1    2 1
     2    1   25 1
     3    1   26 1
     4    1   27 1
     5    2    6 1
     6    2    3 1
     7    3    4 2
     8    3   28 1
     9    4    5 1
    10    4    7 1
    11    5    6 2
    12    5   29 1
    13    7    8 1
    14    7   30 1
    15    7   31 1
    16    8    9 1
    17    8   32 1
    18    8   33 1
    19    9   10 2
    20    9   11 am
    21   11   20 1
    22   11   12 1
    23   12   13 1
    24   12   34 1
    25   12   35 1
    26   13   14 1
    27   13   36 1
    28   13   37 1
    29   14   19 ar
    30   14   15 ar
    31   15   16 ar
    32   15   38 1
    33   16   17 ar
    34   16   39 1
    35   17   18 ar
    36   17   40 1
    37   18   23 1
    38   18   19 ar
    39   19   20 1
    40   20   21 1
    41   20   41 1
    42   21   22 1
    43   21   42 1
    44   21   43 1
    45   22   23 am
    46   22   44 1
    47   23   24 2
@<TRIPOS>MOLECULE
CHEMBL593202__1
   44    47     0     0     0
SMALL
USER_CHARGES

@<TRIPOS>ATOM
      1 C1         -0.0178    1.4608    0.0101 C.3       1 <0>         0.0997
      2 N1          0.0021   -0.0041    0.0020 N.pl3     1 <0>        -0.3763
      3 C2          0.0078   -0.7920   -1.0936 C.2       1 <0>         0.0586
      4 C3          0.0272   -2.0789   -0.6760 C.2       1 <0>        -0.2403
      5 C4          0.0335   -2.0775    0.7227 C.2       1 <0>         0.0528
      6 N2          0.0246   -0.8342    1.1302 N.2       1 <0>        -0.2963
      7 C5          0.0390   -3.2983   -1.5614 C.3       1 <0>        -0.0227
      8 C6          1.4853   -3.6917   -1.8684 C.3       1 <0>        -0.1328
      9 C7          1.4971   -4.9110   -2.7539 C.2       1 <0>         0.5205
     10 O1          0.4517   -5.4158   -3.1048 O.2       1 <0>        -0.5300
     11 N3          2.6695   -5.4407   -3.1558 N.am      1 <0>        -0.6074
     12 C8          3.9498   -4.8568   -2.7433 C.3       1 <0>         0.1082
     13 C9          4.7956   -5.8804   -2.0085 C.3       1 <0>        -0.0980
     14 C10         4.5761   -7.2912   -2.4693 C.ar      1 <0>        -0.0748
     15 C11         5.4161   -8.2766   -1.9536 C.ar      1 <0>        -0.0941
     16 C12         5.2771   -9.5972   -2.3282 C.ar      1 <0>        -0.1212
     17 C13         4.2880   -9.9667   -3.2177 C.ar      1 <0>        -0.0567
     18 C14         3.4364   -8.9936   -3.7318 C.ar      1 <0>        -0.1271
     19 C15         3.6057   -7.6515   -3.3719 C.ar      1 <0>        -0.0674
     20 C16         2.7136   -6.6280   -4.0184 C.3       1 <0>         0.1690
     21 C17         1.3098   -7.1995   -4.1940 C.3       1 <0>         0.1234
     22 N4          1.3700   -8.4761   -4.9076 N.am      1 <0>        -0.7229
     23 C18         2.3500   -9.3536   -4.6673 C.2       1 <0>         0.5598
     24 O2          2.3419  -10.4448   -5.2028 O.2       1 <0>        -0.5371
     25 H1          1.0048    1.8381    0.0023 H         1 <0>         0.0755
     26 H2         -0.5450    1.8219   -0.8730 H         1 <0>         0.0880
     27 H3         -0.5280    1.8123    0.9069 H         1 <0>         0.0898
     28 H4         -0.0017   -0.4556   -2.1198 H         1 <0>         0.1732
     29 H5          0.0482   -2.9516    1.3568 H         1 <0>         0.1825
     30 H6         -0.4613   -4.1220   -1.0521 H         1 <0>         0.0791
     31 H7         -0.4826   -3.0763   -2.4924 H         1 <0>         0.0761
     32 H8          1.9856   -2.8680   -2.3777 H         1 <0>         0.0945
     33 H9          2.0069   -3.9136   -0.9374 H         1 <0>         0.0960
     34 H10         4.4886   -4.5134   -3.6263 H         1 <0>         0.0770
     35 H11         3.7618   -4.0080   -2.0858 H         1 <0>         0.0983
     36 H12         5.8467   -5.6282   -2.1486 H         1 <0>         0.0927
     37 H13         4.5659   -5.8223   -0.9446 H         1 <0>         0.0849
     38 H14         6.1882   -8.0021   -1.2501 H         1 <0>         0.1294
     39 H15         5.9444  -10.3442   -1.9245 H         1 <0>         0.1337
     40 H16         4.1766  -10.9999   -3.5117 H         1 <0>         0.1395
     41 H17         3.1224   -6.3559   -4.9915 H         1 <0>         0.0950
     42 H18         0.8577   -7.3543   -3.2143 H         1 <0>         0.0886
     43 H19         0.7019   -6.4960   -4.7629 H         1 <0>         0.1102
     44 H20         0.6961   -8.6872   -5.5726 H         1 <0>         0.4091
@<TRIPOS>BOND
     1    1    2 1
     2    1   25 1
     3    1   26 1
     4    1   27 1
     5    2    6 1
     6    2    3 1
     7    3    4 2
     8    3   28 1
     9    4    5 1
    10    4    7 1
    11    5    6 2
    12    5   29 1
    13    7    8 1
    14    7   30 1
    15    7   31 1
    16    8    9 1
    17    8   32 1
    18    8   33 1
    19    9   10 2
    20    9   11 am
    21   11   20 1
    22   11   12 1
    23   12   13 1
    24   12   34 1
    25   12   35 1
    26   13   14 1
    27   13   36 1
    28   13   37 1
    29   14   19 ar
    30   14   15 ar
    31   15   16 ar
    32   15   38 1
    33   16   17 ar
    34   16   39 1
    35   17   18 ar
    36   17   40 1
    37   18   23 1
    38   18   19 ar
    39   19   20 1
    40   20   21 1
    41   20   41 1
    42   21   22 1
    43   21   42 1
    44   21   43 1
    45   22   23 am
    46   22   44 1
    47   23   24 2
@<TRIPOS>MOLECULE
CHEMBL553676
   35    38     0     0     0
SMALL
USER_CHARGES

@<TRIPOS>ATOM
      1 C1         -0.0163    1.3512    0.0095 C.2       1 <0>        -0.1803
      2 C2          1.3081    1.7995   -0.0008 C.2       1 <0>        -0.0695
      3 C3          2.1126    0.6813   -0.0144 C.2       1 <0>        -0.0782
      4 C4          3.5658    0.5029   -0.0288 C.2       1 <0>         0.5860
      5 O1          4.3019    1.4727   -0.0304 O.2       1 <0>        -0.4881
      6 N1          4.0837   -0.7415   -0.0400 N.am      1 <0>        -0.6558
      7 H1          5.0461   -0.8624   -0.0495 H         1 <0>         0.4246
      8 C5          3.2458   -1.8567   -0.0374 C.ar      1 <0>         0.1605
      9 C6          3.7976   -3.1323   -0.0485 C.ar      1 <0>        -0.1102
     10 C7          2.9753   -4.2410   -0.0461 C.ar      1 <0>        -0.1427
     11 C8          1.5997   -4.0887   -0.0323 C.ar      1 <0>        -0.0919
     12 C9          1.0413   -2.8259   -0.0213 C.ar      1 <0>        -0.0983
     13 C10         1.8600   -1.7046   -0.0235 C.ar      1 <0>         0.1341
     14 N2          1.2908   -0.4267   -0.0125 N.pl3     1 <0>        -0.3876
     15 C11         0.0021   -0.0041    0.0020 C.2       1 <0>         0.0338
     16 C12         3.5775   -5.6224   -0.0591 C.3       1 <0>         0.0533
     17 N3          3.7867   -6.0784    1.3215 N.4       1 <0>        -0.4797
     18 C13         4.3737   -7.4249    1.3089 C.3       1 <0>        -0.0852
     19 C14         3.5474   -8.5615    1.9141 C.3       1 <0>        -0.1540
     20 C15         4.7777   -8.0322    2.6538 C.3       1 <0>        -0.1547
     21 H2         -0.8981    1.9747    0.0252 H         1 <0>         0.1645
     22 H3          1.6379    2.8279    0.0013 H         1 <0>         0.1627
     23 H4          4.8704   -3.2562   -0.0593 H         1 <0>         0.1490
     24 H5          0.9614   -4.9598   -0.0306 H         1 <0>         0.1462
     25 H6         -0.0325   -2.7104   -0.0112 H         1 <0>         0.1509
     26 H7         -0.8682   -0.6436    0.0066 H         1 <0>         0.1807
     27 H8          2.9018   -6.3085   -0.5699 H         1 <0>         0.1437
     28 H9          4.5334   -5.5971   -0.5822 H         1 <0>         0.1413
     29 H10         4.4121   -5.4433    1.7944 H         1 <0>         0.4284
     30 H11         4.9947   -7.6589    0.4442 H         1 <0>         0.1791
     31 H12         2.5683   -8.3101    2.3217 H         1 <0>         0.1213
     32 H13         3.6246   -9.5436    1.4475 H         1 <0>         0.1343
     33 H14         5.6642   -8.6660    2.6739 H         1 <0>         0.1345
     34 H15         4.6078   -7.4325    3.5481 H         1 <0>         0.1211
     35 H16         2.9018   -6.1018    1.8058 H         1 <0>         0.4260
@<TRIPOS>BOND
     1    1   15 2
     2    1    2 1
     3    1   21 1
     4    2    3 2
     5    2   22 1
     6    3   14 1
     7    3    4 1
     8    4    5 2
     9    4    6 am
    10    6    7 1
    11    6    8 1
    12    8   13 ar
    13    8    9 ar
    14    9   10 ar
    15    9   23 1
    16   10   11 ar
    17   10   16 1
    18   11   12 ar
    19   11   24 1
    20   12   13 ar
    21   12   25 1
    22   13   14 1
    23   14   15 1
    24   15   26 1
    25   16   17 1
    26   16   27 1
    27   16   28 1
    28   17   18 1
    29   17   29 1
    30   17   35 1
    31   18   20 1
    32   18   19 1
    33   18   30 1
    34   19   20 1
    35   19   31 1
    36   19   32 1
    37   20   33 1
    38   20   34 1
@<TRIPOS>MOLECULE
CHEMBL562287
   41    44     0     0     0
SMALL
USER_CHARGES

@<TRIPOS>ATOM
      1 C1         -0.0167    1.3781    0.0096 C.ar      1 <0>        -0.0818
      2 C2          1.1709    2.0855    0.0021 C.ar      1 <0>        -0.1147
      3 C3          2.3773    1.4107   -0.0130 C.ar      1 <0>        -0.0927
      4 C4          2.3960    0.0285   -0.0201 C.ar      1 <0>        -0.1696
      5 C5          1.2084   -0.6789   -0.0117 C.ar      1 <0>        -0.0929
      6 C6          0.0021   -0.0041    0.0020 C.ar      1 <0>        -0.1146
      7 C7          3.7112   -0.7071   -0.0376 C.3       1 <0>         0.0463
      8 N1          4.1530   -0.9531    1.3416 N.4       1 <0>        -0.5090
      9 C8          5.4350   -1.6702    1.3246 C.3       1 <0>         0.0471
     10 C9          5.8883   -1.9225    2.7395 C.ar      1 <0>        -0.1407
     11 C10         6.6768   -0.9880    3.3879 C.ar      1 <0>        -0.0920
     12 C11         7.0956   -1.2127    4.6843 C.ar      1 <0>        -0.0981
     13 C12         6.7262   -2.3790    5.3409 C.ar      1 <0>         0.1333
     14 C13         5.9323   -3.3214    4.6887 C.ar      1 <0>         0.1606
     15 C14         5.5108   -3.0822    3.3860 C.ar      1 <0>        -0.1106
     16 N2          5.5521   -4.4988    5.3328 N.am      1 <0>        -0.6557
     17 H1          4.9997   -5.1458    4.8667 H         1 <0>         0.4245
     18 C15         5.9470   -4.7444    6.5979 C.2       1 <0>         0.5861
     19 O1          5.6128   -5.7742    7.1549 O.2       1 <0>        -0.4885
     20 C16         6.7807   -3.7654    7.2982 C.2       1 <0>        -0.0782
     21 N3          7.1528   -2.6037    6.6542 N.pl3     1 <0>        -0.3873
     22 C17         7.9153   -1.8693    7.5020 C.2       1 <0>         0.0338
     23 C18         8.0380   -2.5381    8.6746 C.2       1 <0>        -0.1804
     24 C19         7.3272   -3.7369    8.5625 C.2       1 <0>        -0.0699
     25 H2         -0.9591    1.9053    0.0259 H         1 <0>         0.1362
     26 H3          1.1563    3.1654    0.0076 H         1 <0>         0.1364
     27 H4          3.3051    1.9634   -0.0196 H         1 <0>         0.1319
     28 H5          1.2231   -1.7588   -0.0176 H         1 <0>         0.1314
     29 H6         -0.9258   -0.5567    0.0082 H         1 <0>         0.1363
     30 H7          3.5884   -1.6586   -0.5549 H         1 <0>         0.1389
     31 H8          4.4573   -0.1052   -0.5563 H         1 <0>         0.1395
     32 H9          4.2667   -0.0723    1.8205 H         1 <0>         0.4278
     33 H10         5.3122   -2.6217    0.8073 H         1 <0>         0.1420
     34 H11         6.1811   -1.0682    0.8060 H         1 <0>         0.1443
     35 H12         6.9656   -0.0806    2.8783 H         1 <0>         0.1463
     36 H13         7.7109   -0.4815    5.1874 H         1 <0>         0.1506
     37 H14         4.8917   -3.8065    2.8776 H         1 <0>         0.1488
     38 H15         8.3540   -0.9080    7.2789 H         1 <0>         0.1806
     39 H16         8.5878   -2.2041    9.5421 H         1 <0>         0.1643
     40 H17         7.2265   -4.4972    9.3229 H         1 <0>         0.1625
     41 H18         3.4623   -1.5103    1.8218 H         1 <0>         0.4272
@<TRIPOS>BOND
     1    1    6 ar
     2    1    2 ar
     3    1   25 1
     4    2    3 ar
     5    2   26 1
     6    3    4 ar
     7    3   27 1
     8    4    5 ar
     9    4    7 1
    10    5    6 ar
    11    5   28 1
    12    6   29 1
    13    7    8 1
    14    7   30 1
    15    7   31 1
    16    8    9 1
    17    8   32 1
    18    8   41 1
    19    9   10 1
    20    9   33 1
    21    9   34 1
    22   10   15 ar
    23   10   11 ar
    24   11   12 ar
    25   11   35 1
    26   12   13 ar
    27   12   36 1
    28   13   21 1
    29   13   14 ar
    30   14   15 ar
    31   14   16 1
    32   15   37 1
    33   16   17 1
    34   16   18 am
    35   18   19 2
    36   18   20 1
    37   20   24 2
    38   20   21 1
    39   21   22 1
    40   22   23 2
    41   22   38 1
    42   23   24 1
    43   23   39 1
    44   24   40 1
@<TRIPOS>MOLECULE
CHEMBL562287__1
   40    43     0     0     0
SMALL
USER_CHARGES

@<TRIPOS>ATOM
      1 C1         -0.0167    1.3781    0.0096 C.ar      1 <0>        -0.1178
      2 C2          1.1709    2.0855    0.0021 C.ar      1 <0>        -0.1208
      3 C3          2.3773    1.4107   -0.0130 C.ar      1 <0>        -0.1144
      4 C4          2.3960    0.0285   -0.0201 C.ar      1 <0>        -0.0875
      5 C5          1.2084   -0.6789   -0.0117 C.ar      1 <0>        -0.0968
      6 C6          0.0021   -0.0041    0.0020 C.ar      1 <0>        -0.1212
      7 C7          3.7112   -0.7071   -0.0376 C.3       1 <0>         0.0983
      8 N1          4.1530   -0.9531    1.3416 N.3       1 <0>        -0.6795
      9 C8          5.4349   -1.6701    1.3638 C.3       1 <0>         0.0961
     10 C9          5.8551   -1.9039    2.7921 C.ar      1 <0>        -0.0520
     11 C10         6.6284   -0.9609    3.4463 C.ar      1 <0>        -0.1115
     12 C11         7.0170   -1.1687    4.7550 C.ar      1 <0>        -0.0970
     13 C12         6.6322   -2.3263    5.4179 C.ar      1 <0>         0.0899
     14 C13         5.8536   -3.2773    4.7598 C.ar      1 <0>         0.1553
     15 C14         5.4625   -3.0552    3.4447 C.ar      1 <0>        -0.1105
     16 N2          5.4583   -4.4463    5.4101 N.am      1 <0>        -0.6522
     17 H1          4.9168   -5.0994    4.9397 H         1 <0>         0.4220
     18 C15         5.8236   -4.6753    6.6872 C.2       1 <0>         0.5862
     19 O1          5.4764   -5.6978    7.2496 O.2       1 <0>        -0.5087
     20 C16         6.6409   -3.6872    7.3939 C.2       1 <0>        -0.0732
     21 N3          7.0281   -2.5338    6.7436 N.pl3     1 <0>        -0.3724
     22 C17         7.7708   -1.7883    7.5994 C.2       1 <0>         0.0290
     23 C18         7.8660   -2.4418    8.7831 C.2       1 <0>        -0.1920
     24 C19         7.1578   -3.6421    8.6701 C.2       1 <0>        -0.0877
     25 H2         -0.9591    1.9053    0.0259 H         1 <0>         0.1217
     26 H3          1.1563    3.1654    0.0076 H         1 <0>         0.1219
     27 H4          3.3051    1.9634   -0.0196 H         1 <0>         0.1184
     28 H5          1.2231   -1.7588   -0.0176 H         1 <0>         0.1228
     29 H6         -0.9258   -0.5567    0.0082 H         1 <0>         0.1226
     30 H7          3.5884   -1.6586   -0.5549 H         1 <0>         0.0834
     31 H8          4.4573   -0.1052   -0.5563 H         1 <0>         0.0420
     32 H9          4.2122   -0.0904    1.8617 H         1 <0>         0.3456
     33 H10         5.3241   -2.6283    0.8562 H         1 <0>         0.0873
     34 H11         6.1931   -1.0749    0.8549 H         1 <0>         0.0476
     35 H12         6.9291   -0.0602    2.9319 H         1 <0>         0.1354
     36 H13         7.6204   -0.4308    5.2628 H         1 <0>         0.1391
     37 H14         4.8554   -3.7861    2.9314 H         1 <0>         0.1428
     38 H15         8.2147   -0.8299    7.3740 H         1 <0>         0.1751
     39 H16         8.3955   -2.0964    9.6587 H         1 <0>         0.1570
     40 H17         7.0393   -4.3924    9.4378 H         1 <0>         0.1558
@<TRIPOS>BOND
     1    1    6 ar
     2    1    2 ar
     3    1   25 1
     4    2    3 ar
     5    2   26 1
     6    3    4 ar
     7    3   27 1
     8    4    5 ar
     9    4    7 1
    10    5    6 ar
    11    5   28 1
    12    6   29 1
    13    7    8 1
    14    7   30 1
    15    7   31 1
    16    8    9 1
    17    8   32 1
    18    9   10 1
    19    9   33 1
    20    9   34 1
    21   10   15 ar
    22   10   11 ar
    23   11   12 ar
    24   11   35 1
    25   12   13 ar
    26   12   36 1
    27   13   21 1
    28   13   14 ar
    29   14   15 ar
    30   14   16 1
    31   15   37 1
    32   16   17 1
    33   16   18 am
    34   18   19 2
    35   18   20 1
    36   20   24 2
    37   20   21 1
    38   21   22 1
    39   22   23 2
    40   22   38 1
    41   23   24 1
    42   23   39 1
    43   24   40 1
@<TRIPOS>MOLECULE
CHEMBL593364
   38    41     0     0     0
SMALL
USER_CHARGES

@<TRIPOS>ATOM
      1 C1         -0.0166    1.3760    0.0096 C.ar      1 <0>        -0.1137
      2 C2          1.1662    2.0868    0.0021 C.ar      1 <0>        -0.0913
      3 C3          2.3967    1.4340   -0.0291 C.ar      1 <0>        -0.0833
      4 C4          2.4201    0.0605   -0.0499 C.ar      1 <0>        -0.0739
      5 C5          1.2266   -0.6678   -0.0130 C.ar      1 <0>        -0.1230
      6 C6          0.0021   -0.0041    0.0020 C.ar      1 <0>        -0.0506
      7 C7          1.2842   -2.1436    0.0500 C.2       1 <0>         0.5574
      8 O1          0.2876   -2.8040   -0.1694 O.2       1 <0>        -0.5189
      9 N1          2.4471   -2.7525    0.3513 N.am      1 <0>        -0.7296
     10 C8          3.6229   -1.9689    0.7327 C.3       1 <0>         0.1268
     11 C9          3.7168   -0.7072   -0.1204 C.3       1 <0>         0.1683
     12 N2          4.7906    0.1591    0.3818 N.am      1 <0>        -0.5845
     13 C10         4.9172    1.4937   -0.2120 C.3       1 <0>         0.1000
     14 C11         3.6334    2.2836   -0.0343 C.3       1 <0>        -0.0962
     15 C12         5.6281   -0.2566    1.3525 C.2       1 <0>         0.5212
     16 O2          5.5025   -1.3652    1.8280 O.2       1 <0>        -0.5208
     17 C13         6.7206    0.6560    1.8469 C.3       1 <0>        -0.1726
     18 C14         6.2521    1.6620    2.9137 C.3       1 <0>         0.0241
     19 N3          6.6283    0.6325    3.9076 N.4       1 <0>        -0.5363
     20 C15         7.5911    0.0365    2.9551 C.3       1 <0>         0.0346
     21 H1         -0.9601    1.9013    0.0260 H         1 <0>         0.1389
     22 H2          1.1376    3.1663    0.0204 H         1 <0>         0.1327
     23 H3         -0.9221   -0.5629    0.0080 H         1 <0>         0.1444
     24 H4          2.5058   -3.7200    0.3155 H         1 <0>         0.4135
     25 H5          3.5450   -1.6893    1.7833 H         1 <0>         0.0801
     26 H6          4.5201   -2.5705    0.5874 H         1 <0>         0.1096
     27 H7          3.9215   -0.9818   -1.1552 H         1 <0>         0.1068
     28 H8          5.7361    2.0259    0.2720 H         1 <0>         0.0947
     29 H9          5.1334    1.3944   -1.2758 H         1 <0>         0.0920
     30 H10         3.5550    3.0075   -0.8454 H         1 <0>         0.1012
     31 H11         3.6865    2.8268    0.9092 H         1 <0>         0.0824
     32 H12         7.2955    1.1074    1.0383 H         1 <0>         0.1604
     33 H13         6.8614    2.5644    2.9640 H         1 <0>         0.1695
     34 H14         5.1828    1.8707    2.8809 H         1 <0>         0.1422
     35 H15         7.0730    1.0197    4.7264 H         1 <0>         0.4295
     36 H16         7.5916   -1.0534    2.9555 H         1 <0>         0.1546
     37 H17         8.5921    0.4635    3.0176 H         1 <0>         0.1658
     38 H18         5.8673    0.0115    4.1385 H         1 <0>         0.4441
@<TRIPOS>BOND
     1    1    6 ar
     2    1    2 ar
     3    1   21 1
     4    2    3 ar
     5    2   22 1
     6    3   14 1
     7    3    4 ar
     8    4   11 1
     9    4    5 ar
    10    5    6 ar
    11    5    7 1
    12    6   23 1
    13    7    8 2
    14    7    9 am
    15    9   10 1
    16    9   24 1
    17   10   11 1
    18   10   25 1
    19   10   26 1
    20   11   12 1
    21   11   27 1
    22   12   13 1
    23   12   15 am
    24   13   14 1
    25   13   28 1
    26   13   29 1
    27   14   30 1
    28   14   31 1
    29   15   16 2
    30   15   17 1
    31   17   20 1
    32   17   18 1
    33   17   32 1
    34   18   19 1
    35   18   33 1
    36   18   34 1
    37   19   20 1
    38   19   35 1
    39   19   38 1
    40   20   36 1
    41   20   37 1
@<TRIPOS>MOLECULE
CHEMBL593364__1
   38    41     0     0     0
SMALL
USER_CHARGES

@<TRIPOS>ATOM
      1 C1         -0.0166    1.3760    0.0096 C.ar      1 <0>        -0.1144
      2 C2          1.1662    2.0868    0.0021 C.ar      1 <0>        -0.0917
      3 C3          2.3970    1.4338    0.0028 C.ar      1 <0>        -0.0829
      4 C4          2.4207    0.0601    0.0084 C.ar      1 <0>        -0.0726
      5 C5          1.2266   -0.6678   -0.0135 C.ar      1 <0>        -0.1229
      6 C6          0.0021   -0.0041    0.0020 C.ar      1 <0>        -0.0507
      7 C7          1.2829   -2.1428   -0.0935 C.2       1 <0>         0.5576
      8 O1          0.2903   -2.8056    0.1369 O.2       1 <0>        -0.5204
      9 N1          2.4397   -2.7483   -0.4236 N.am      1 <0>        -0.7291
     10 C8          3.6080   -1.9605   -0.8189 C.3       1 <0>         0.1255
     11 C9          3.7184   -0.7081    0.0458 C.3       1 <0>         0.1695
     12 N2          4.7825    0.1637   -0.4675 N.am      1 <0>        -0.5898
     13 C10         4.9205    1.4919    0.1382 C.3       1 <0>         0.1034
     14 C11         3.6336    2.2834   -0.0064 C.3       1 <0>        -0.0959
     15 C12         5.6018   -0.2418   -1.4578 C.2       1 <0>         0.5275
     16 O2          5.4675   -1.3456   -1.9422 O.2       1 <0>        -0.5114
     17 C13         6.6848    0.6762   -1.9632 C.3       1 <0>        -0.1698
     18 C14         6.1962    1.6929   -3.0107 C.3       1 <0>         0.0228
     19 N3          7.4511    1.3982   -3.7371 N.4       1 <0>        -0.5338
     20 C15         7.5345    0.0684   -3.0938 C.3       1 <0>         0.0319
     21 H1         -0.9601    1.9013    0.0260 H         1 <0>         0.1384
     22 H2          1.1374    3.1664   -0.0047 H         1 <0>         0.1319
     23 H3         -0.9221   -0.5629    0.0077 H         1 <0>         0.1441
     24 H4          2.4992   -3.7162   -0.3987 H         1 <0>         0.4133
     25 H5          4.5079   -2.5635   -0.6972 H         1 <0>         0.1093
     26 H6          3.5101   -1.6696   -1.8647 H         1 <0>         0.0825
     27 H7          3.9428   -0.9938    1.0735 H         1 <0>         0.1054
     28 H8          5.1571    1.3811    1.1964 H         1 <0>         0.0901
     29 H9          5.7301    2.0293   -0.3557 H         1 <0>         0.0899
     30 H10         3.6688    2.8368   -0.9449 H         1 <0>         0.0822
     31 H11         3.5708    2.9985    0.8138 H         1 <0>         0.0995
     32 H12         7.2746    1.1195   -1.1609 H         1 <0>         0.1567
     33 H13         5.2975    1.3790   -3.5415 H         1 <0>         0.1575
     34 H14         6.1353    2.7146   -2.6360 H         1 <0>         0.1523
     35 H15         7.3241    1.3447   -4.7367 H         1 <0>         0.4325
     36 H16         8.5428   -0.2078   -2.7854 H         1 <0>         0.1520
     37 H17         7.0271   -0.7206   -3.6489 H         1 <0>         0.1664
     38 H18         8.2099    2.0100   -3.4763 H         1 <0>         0.4432
@<TRIPOS>BOND
     1    1    6 ar
     2    1    2 ar
     3    1   21 1
     4    2    3 ar
     5    2   22 1
     6    3   14 1
     7    3    4 ar
     8    4   11 1
     9    4    5 ar
    10    5    6 ar
    11    5    7 1
    12    6   23 1
    13    7    8 2
    14    7    9 am
    15    9   10 1
    16    9   24 1
    17   10   11 1
    18   10   25 1
    19   10   26 1
    20   11   12 1
    21   11   27 1
    22   12   13 1
    23   12   15 am
    24   13   14 1
    25   13   28 1
    26   13   29 1
    27   14   30 1
    28   14   31 1
    29   15   16 2
    30   15   17 1
    31   17   20 1
    32   17   18 1
    33   17   32 1
    34   18   19 1
    35   18   33 1
    36   18   34 1
    37   19   20 1
    38   19   35 1
    39   19   38 1
    40   20   36 1
    41   20   37 1
@<TRIPOS>MOLECULE
CHEMBL593363
   41    44     0     0     0
SMALL
USER_CHARGES

@<TRIPOS>ATOM
      1 C1         -0.0166    1.3760    0.0096 C.ar      1 <0>        -0.1144
      2 C2          1.1662    2.0868    0.0021 C.ar      1 <0>        -0.0914
      3 C3          2.3967    1.4340   -0.0291 C.ar      1 <0>        -0.0802
      4 C4          2.4201    0.0605   -0.0499 C.ar      1 <0>        -0.0741
      5 C5          1.2266   -0.6678   -0.0130 C.ar      1 <0>        -0.1242
      6 C6          0.0021   -0.0041    0.0020 C.ar      1 <0>        -0.0517
      7 C7          1.2842   -2.1436    0.0500 C.2       1 <0>         0.5586
      8 O1          0.2876   -2.8040   -0.1694 O.2       1 <0>        -0.5213
      9 N1          2.4471   -2.7525    0.3513 N.am      1 <0>        -0.7298
     10 C8          3.6229   -1.9689    0.7327 C.3       1 <0>         0.1260
     11 C9          3.7168   -0.7072   -0.1204 C.3       1 <0>         0.1703
     12 N2          4.7906    0.1591    0.3818 N.am      1 <0>        -0.5898
     13 C10         4.9172    1.4937   -0.2120 C.3       1 <0>         0.1007
     14 C11         3.6334    2.2836   -0.0343 C.3       1 <0>        -0.0982
     15 C12         5.6281   -0.2566    1.3525 C.2       1 <0>         0.5223
     16 O2          5.5025   -1.3652    1.8280 O.2       1 <0>        -0.5241
     17 C13         6.7206    0.6560    1.8469 C.3       1 <0>        -0.1344
     18 C14         7.7321    0.9449    0.7140 C.3       1 <0>        -0.1439
     19 C15         9.0940    0.9272    1.4526 C.3       1 <0>        -0.0017
     20 N3          8.9262   -0.1617    2.4488 N.4       1 <0>        -0.5163
     21 C16         7.5399   -0.0397    2.9497 C.3       1 <0>        -0.0001
     22 H1         -0.9601    1.9013    0.0260 H         1 <0>         0.1383
     23 H2          1.1376    3.1663    0.0204 H         1 <0>         0.1323
     24 H3         -0.9221   -0.5629    0.0080 H         1 <0>         0.1438
     25 H4          2.5058   -3.7200    0.3155 H         1 <0>         0.4121
     26 H5          3.5450   -1.6893    1.7833 H         1 <0>         0.0840
     27 H6          4.5201   -2.5705    0.5874 H         1 <0>         0.1067
     28 H7          3.9215   -0.9818   -1.1552 H         1 <0>         0.1031
     29 H8          5.7361    2.0259    0.2720 H         1 <0>         0.0952
     30 H9          5.1334    1.3944   -1.2758 H         1 <0>         0.0873
     31 H10         3.5550    3.0075   -0.8454 H         1 <0>         0.0986
     32 H11         3.6865    2.8268    0.9092 H         1 <0>         0.0854
     33 H12         6.2946    1.5865    2.2221 H         1 <0>         0.1407
     34 H13         7.6947    0.1635   -0.0450 H         1 <0>         0.1058
     35 H14         7.5462    1.9235    0.2712 H         1 <0>         0.1286
     36 H15         9.9037    0.6944    0.7610 H         1 <0>         0.1433
     37 H16         9.2740    1.8799    1.9506 H         1 <0>         0.1415
     38 H17         9.0592   -1.0597    2.0085 H         1 <0>         0.4347
     39 H18         7.5251    0.5617    3.8587 H         1 <0>         0.1429
     40 H19         7.1288   -1.0293    3.1494 H         1 <0>         0.1561
     41 H20         9.5816   -0.0438    3.2068 H         1 <0>         0.4375
@<TRIPOS>BOND
     1    1    6 ar
     2    1    2 ar
     3    1   22 1
     4    2    3 ar
     5    2   23 1
     6    3   14 1
     7    3    4 ar
     8    4   11 1
     9    4    5 ar
    10    5    6 ar
    11    5    7 1
    12    6   24 1
    13    7    8 2
    14    7    9 am
    15    9   10 1
    16    9   25 1
    17   10   11 1
    18   10   26 1
    19   10   27 1
    20   11   12 1
    21   11   28 1
    22   12   13 1
    23   12   15 am
    24   13   14 1
    25   13   29 1
    26   13   30 1
    27   14   31 1
    28   14   32 1
    29   15   16 2
    30   15   17 1
    31   17   21 1
    32   17   18 1
    33   17   33 1
    34   18   19 1
    35   18   34 1
    36   18   35 1
    37   19   20 1
    38   19   36 1
    39   19   37 1
    40   20   21 1
    41   20   38 1
    42   20   41 1
    43   21   39 1
    44   21   40 1
@<TRIPOS>MOLECULE
CHEMBL593363__1
   41    44     0     0     0
SMALL
USER_CHARGES

@<TRIPOS>ATOM
      1 C1         -0.0166    1.3760    0.0096 C.ar      1 <0>        -0.1150
      2 C2          1.1662    2.0868    0.0021 C.ar      1 <0>        -0.0919
      3 C3          2.3967    1.4340   -0.0291 C.ar      1 <0>        -0.0814
      4 C4          2.4201    0.0605   -0.0499 C.ar      1 <0>        -0.0720
      5 C5          1.2266   -0.6678   -0.0130 C.ar      1 <0>        -0.1235
      6 C6          0.0021   -0.0041    0.0020 C.ar      1 <0>        -0.0515
      7 C7          1.2842   -2.1436    0.0500 C.2       1 <0>         0.5579
      8 O1          0.2876   -2.8040   -0.1694 O.2       1 <0>        -0.5215
      9 N1          2.4471   -2.7525    0.3513 N.am      1 <0>        -0.7293
     10 C8          3.6229   -1.9689    0.7327 C.3       1 <0>         0.1261
     11 C9          3.7168   -0.7072   -0.1204 C.3       1 <0>         0.1697
     12 N2          4.7906    0.1591    0.3818 N.am      1 <0>        -0.5904
     13 C10         4.9172    1.4937   -0.2120 C.3       1 <0>         0.0992
     14 C11         3.6334    2.2836   -0.0343 C.3       1 <0>        -0.0965
     15 C12         5.6281   -0.2566    1.3525 C.2       1 <0>         0.5282
     16 O2          5.5025   -1.3652    1.8280 O.2       1 <0>        -0.5215
     17 C13         6.7206    0.6560    1.8469 C.3       1 <0>        -0.1328
     18 C14         6.1195    1.8869    2.5751 C.3       1 <0>        -0.1428
     19 C15         7.2722    2.2773    3.5335 C.3       1 <0>        -0.0058
     20 N3          7.8516    0.9895    3.9713 N.4       1 <0>        -0.5136
     21 C16         7.5478   -0.0325    2.9529 C.3       1 <0>         0.0010
     22 H1         -0.9601    1.9013    0.0260 H         1 <0>         0.1380
     23 H2          1.1376    3.1663    0.0204 H         1 <0>         0.1318
     24 H3         -0.9221   -0.5629    0.0080 H         1 <0>         0.1437
     25 H4          2.5058   -3.7200    0.3155 H         1 <0>         0.4126
     26 H5          3.5450   -1.6893    1.7833 H         1 <0>         0.0825
     27 H6          4.5201   -2.5705    0.5874 H         1 <0>         0.1087
     28 H7          3.9215   -0.9818   -1.1552 H         1 <0>         0.1040
     29 H8          5.7361    2.0259    0.2720 H         1 <0>         0.0948
     30 H9          5.1334    1.3944   -1.2758 H         1 <0>         0.0881
     31 H10         3.5550    3.0075   -0.8454 H         1 <0>         0.0988
     32 H11         3.6865    2.8268    0.9092 H         1 <0>         0.0825
     33 H12         7.3627    0.9678    1.0231 H         1 <0>         0.1375
     34 H13         5.9074    2.6918    1.8713 H         1 <0>         0.1276
     35 H14         5.2242    1.6119    3.1327 H         1 <0>         0.1071
     36 H15         8.0197    2.8700    3.0063 H         1 <0>         0.1402
     37 H16         6.8836    2.8292    4.3894 H         1 <0>         0.1428
     38 H17         8.8513    1.0833    4.0706 H         1 <0>         0.4358
     39 H18         6.9691   -0.8408    3.3999 H         1 <0>         0.1520
     40 H19         8.4742   -0.4247    2.5334 H         1 <0>         0.1434
     41 H20         7.4477    0.7186    4.8554 H         1 <0>         0.4352
@<TRIPOS>BOND
     1    1    6 ar
     2    1    2 ar
     3    1   22 1
     4    2    3 ar
     5    2   23 1
     6    3   14 1
     7    3    4 ar
     8    4   11 1
     9    4    5 ar
    10    5    6 ar
    11    5    7 1
    12    6   24 1
    13    7    8 2
    14    7    9 am
    15    9   10 1
    16    9   25 1
    17   10   11 1
    18   10   26 1
    19   10   27 1
    20   11   12 1
    21   11   28 1
    22   12   13 1
    23   12   15 am
    24   13   14 1
    25   13   29 1
    26   13   30 1
    27   14   31 1
    28   14   32 1
    29   15   16 2
    30   15   17 1
    31   17   21 1
    32   17   18 1
    33   17   33 1
    34   18   19 1
    35   18   34 1
    36   18   35 1
    37   19   20 1
    38   19   36 1
    39   19   37 1
    40   20   21 1
    41   20   38 1
    42   20   41 1
    43   21   39 1
    44   21   40 1
@<TRIPOS>MOLECULE
CHEMBL593363__2
   41    44     0     0     0
SMALL
USER_CHARGES

@<TRIPOS>ATOM
      1 C1         -0.0166    1.3760    0.0096 C.ar      1 <0>        -0.1149
      2 C2          1.1662    2.0868    0.0021 C.ar      1 <0>        -0.0919
      3 C3          2.3970    1.4338    0.0028 C.ar      1 <0>        -0.0816
      4 C4          2.4207    0.0601    0.0084 C.ar      1 <0>        -0.0723
      5 C5          1.2266   -0.6678   -0.0135 C.ar      1 <0>        -0.1236
      6 C6          0.0021   -0.0041    0.0020 C.ar      1 <0>        -0.0515
      7 C7          1.2829   -2.1428   -0.0935 C.2       1 <0>         0.5578
      8 O1          0.2903   -2.8056    0.1369 O.2       1 <0>        -0.5212
      9 N1          2.4397   -2.7483   -0.4236 N.am      1 <0>        -0.7294
     10 C8          3.6080   -1.9605   -0.8189 C.3       1 <0>         0.1266
     11 C9          3.7184   -0.7081    0.0458 C.3       1 <0>         0.1690
     12 N2          4.7825    0.1637   -0.4675 N.am      1 <0>        -0.5894
     13 C10         4.9205    1.4919    0.1382 C.3       1 <0>         0.0984
     14 C11         3.6336    2.2834   -0.0064 C.3       1 <0>        -0.0963
     15 C12         5.6018   -0.2418   -1.4578 C.2       1 <0>         0.5223
     16 O2          5.4675   -1.3456   -1.9422 O.2       1 <0>        -0.5243
     17 C13         6.6848    0.6762   -1.9632 C.3       1 <0>        -0.1340
     18 C14         6.0624    1.9319   -2.6159 C.3       1 <0>        -0.1450
     19 C15         6.9797    2.1766   -3.8403 C.3       1 <0>        -0.0015
     20 N3          7.2928    0.8028   -4.3104 N.4       1 <0>        -0.5166
     21 C16         7.4834   -0.0079   -3.0882 C.3       1 <0>         0.0000
     22 H1         -0.9601    1.9013    0.0260 H         1 <0>         0.1381
     23 H2          1.1374    3.1664   -0.0047 H         1 <0>         0.1319
     24 H3         -0.9221   -0.5629    0.0077 H         1 <0>         0.1438
     25 H4          2.4992   -3.7162   -0.3987 H         1 <0>         0.4127
     26 H5          4.5079   -2.5635   -0.6972 H         1 <0>         0.1088
     27 H6          3.5101   -1.6696   -1.8647 H         1 <0>         0.0817
     28 H7          3.9428   -0.9938    1.0735 H         1 <0>         0.1041
     29 H8          5.1571    1.3811    1.1964 H         1 <0>         0.0883
     30 H9          5.7301    2.0293   -0.3557 H         1 <0>         0.0959
     31 H10         3.6688    2.8368   -0.9449 H         1 <0>         0.0825
     32 H11         3.5708    2.9985    0.8138 H         1 <0>         0.0991
     33 H12         7.3489    0.9618   -1.1475 H         1 <0>         0.1418
     34 H13         5.0389    1.7340   -2.9342 H         1 <0>         0.1051
     35 H14         6.0977    2.7798   -1.9319 H         1 <0>         0.1287
     36 H15         6.4505    2.7359   -4.6118 H         1 <0>         0.1429
     37 H16         7.8893    2.6976   -3.5415 H         1 <0>         0.1420
     38 H17         6.5251    0.4377   -4.8539 H         1 <0>         0.4347
     39 H18         8.5408   -0.0410   -2.8257 H         1 <0>         0.1434
     40 H19         7.1065   -1.0178   -3.2500 H         1 <0>         0.1560
     41 H20         8.1389    0.8076   -4.8602 H         1 <0>         0.4375
@<TRIPOS>BOND
     1    1    6 ar
     2    1    2 ar
     3    1   22 1
     4    2    3 ar
     5    2   23 1
     6    3   14 1
     7    3    4 ar
     8    4   11 1
     9    4    5 ar
    10    5    6 ar
    11    5    7 1
    12    6   24 1
    13    7    8 2
    14    7    9 am
    15    9   10 1
    16    9   25 1
    17   10   11 1
    18   10   26 1
    19   10   27 1
    20   11   12 1
    21   11   28 1
    22   12   13 1
    23   12   15 am
    24   13   14 1
    25   13   29 1
    26   13   30 1
    27   14   31 1
    28   14   32 1
    29   15   16 2
    30   15   17 1
    31   17   21 1
    32   17   18 1
    33   17   33 1
    34   18   19 1
    35   18   34 1
    36   18   35 1
    37   19   20 1
    38   19   36 1
    39   19   37 1
    40   20   21 1
    41   20   38 1
    42   20   41 1
    43   21   39 1
    44   21   40 1
@<TRIPOS>MOLECULE
CHEMBL593363__3
   41    44     0     0     0
SMALL
USER_CHARGES

@<TRIPOS>ATOM
      1 C1         -0.0166    1.3760    0.0096 C.ar      1 <0>        -0.1146
      2 C2          1.1662    2.0868    0.0021 C.ar      1 <0>        -0.0916
      3 C3          2.3970    1.4338    0.0028 C.ar      1 <0>        -0.0805
      4 C4          2.4207    0.0601    0.0084 C.ar      1 <0>        -0.0736
      5 C5          1.2266   -0.6678   -0.0135 C.ar      1 <0>        -0.1239
      6 C6          0.0021   -0.0041    0.0020 C.ar      1 <0>        -0.0517
      7 C7          1.2829   -2.1428   -0.0935 C.2       1 <0>         0.5584
      8 O1          0.2903   -2.8056    0.1369 O.2       1 <0>        -0.5216
      9 N1          2.4397   -2.7483   -0.4236 N.am      1 <0>        -0.7295
     10 C8          3.6080   -1.9605   -0.8189 C.3       1 <0>         0.1256
     11 C9          3.7184   -0.7081    0.0458 C.3       1 <0>         0.1707
     12 N2          4.7825    0.1637   -0.4675 N.am      1 <0>        -0.5908
     13 C10         4.9205    1.4919    0.1382 C.3       1 <0>         0.1012
     14 C11         3.6336    2.2834   -0.0064 C.3       1 <0>        -0.0979
     15 C12         5.6018   -0.2418   -1.4578 C.2       1 <0>         0.5282
     16 O2          5.4675   -1.3456   -1.9422 O.2       1 <0>        -0.5214
     17 C13         6.6848    0.6762   -1.9632 C.3       1 <0>        -0.1332
     18 C14         7.7545    0.9187   -0.8661 C.3       1 <0>        -0.1417
     19 C15         9.0058    1.2503   -1.7169 C.3       1 <0>        -0.0060
     20 N3          8.9065    0.3636   -2.8958 N.4       1 <0>        -0.5136
     21 C16         7.4912   -0.0006   -3.0915 C.3       1 <0>         0.0009
     22 H1         -0.9601    1.9013    0.0260 H         1 <0>         0.1382
     23 H2          1.1374    3.1664   -0.0047 H         1 <0>         0.1321
     24 H3         -0.9221   -0.5629    0.0077 H         1 <0>         0.1438
     25 H4          2.4992   -3.7162   -0.3987 H         1 <0>         0.4123
     26 H5          4.5079   -2.5635   -0.6972 H         1 <0>         0.1075
     27 H6          3.5101   -1.6696   -1.8647 H         1 <0>         0.0839
     28 H7          3.9428   -0.9938    1.0735 H         1 <0>         0.1034
     29 H8          5.1571    1.3811    1.1964 H         1 <0>         0.0874
     30 H9          5.7301    2.0293   -0.3557 H         1 <0>         0.0942
     31 H10         3.6688    2.8368   -0.9449 H         1 <0>         0.0849
     32 H11         3.5708    2.9985    0.8138 H         1 <0>         0.0984
     33 H12         6.2596    1.6195   -2.3059 H         1 <0>         0.1363
     34 H13         7.4792    1.7613   -0.2318 H         1 <0>         0.1278
     35 H14         7.9141    0.0197   -0.2708 H         1 <0>         0.1078
     36 H15         8.9886    2.2955   -2.0257 H         1 <0>         0.1397
     37 H16         9.9146    1.0345   -1.1552 H         1 <0>         0.1430
     38 H17         9.2492    0.8458   -3.7132 H         1 <0>         0.4357
     39 H18         7.3752   -1.0828   -3.0323 H         1 <0>         0.1524
     40 H19         7.1464    0.3591   -4.0609 H         1 <0>         0.1427
     41 H20         9.4533   -0.4701   -2.7407 H         1 <0>         0.4352
@<TRIPOS>BOND
     1    1    6 ar
     2    1    2 ar
     3    1   22 1
     4    2    3 ar
     5    2   23 1
     6    3   14 1
     7    3    4 ar
     8    4   11 1
     9    4    5 ar
    10    5    6 ar
    11    5    7 1
    12    6   24 1
    13    7    8 2
    14    7    9 am
    15    9   10 1
    16    9   25 1
    17   10   11 1
    18   10   26 1
    19   10   27 1
    20   11   12 1
    21   11   28 1
    22   12   13 1
    23   12   15 am
    24   13   14 1
    25   13   29 1
    26   13   30 1
    27   14   31 1
    28   14   32 1
    29   15   16 2
    30   15   17 1
    31   17   21 1
    32   17   18 1
    33   17   33 1
    34   18   19 1
    35   18   34 1
    36   18   35 1
    37   19   20 1
    38   19   36 1
    39   19   37 1
    40   20   21 1
    41   20   38 1
    42   20   41 1
    43   21   39 1
    44   21   40 1
@<TRIPOS>MOLECULE
CHEMBL558645
   50    53     0     0     0
SMALL
USER_CHARGES

@<TRIPOS>ATOM
      1 C1          5.3207    3.5321   -0.7391 C.ar      1 <0>        -0.0371
      2 C2          4.0279    3.2542   -0.4014 C.ar      1 <0>        -0.1401
      3 C3          3.6239    1.9376   -0.1895 C.ar      1 <0>         0.1249
      4 C4          4.5576    0.8896   -0.3240 C.ar      1 <0>        -0.1081
      5 C5          3.8227   -0.3460   -0.0386 C.2       1 <0>        -0.1639
      6 C6          2.5575    0.0066    0.2365 C.2       1 <0>         0.0622
      7 N1          2.4219    1.3657    0.1509 N.pl3     1 <0>        -0.5892
      8 H1          1.5983    1.8535    0.3078 H         1 <0>         0.4204
      9 C7          4.3812   -1.7456   -0.0524 C.3       1 <0>        -0.0586
     10 C8          4.3238   -2.3036   -1.4759 C.3       1 <0>         0.1230
     11 N2          4.8668   -3.6642   -1.4893 N.am      1 <0>        -0.7353
     12 C9          4.9171   -4.3583   -2.6435 C.2       1 <0>         0.5136
     13 O1          4.5129   -3.8565   -3.6710 O.2       1 <0>        -0.5174
     14 C10         5.4756   -5.7579   -2.6573 C.3       1 <0>         0.0349
     15 N3          5.4205   -6.2936   -4.0240 N.3       1 <0>        -0.5202
     16 C11         4.0292   -6.4750   -4.4630 C.3       1 <0>         0.0129
     17 C12         4.0175   -6.9769   -5.9094 C.3       1 <0>         0.0650
     18 O2          4.7744   -8.1874   -5.9948 O.3       1 <0>        -0.3867
     19 C13         6.1345   -8.0468   -5.5754 C.3       1 <0>         0.0637
     20 C14         6.1676   -7.5557   -4.1256 C.3       1 <0>         0.0175
     21 C15         5.8736    1.1762   -0.6680 C.ar      1 <0>         0.0078
     22 C16         6.2547    2.4998   -0.8767 C.ar      1 <0>        -0.1661
     23 C17         7.6564    2.7851   -1.2453 C.2       1 <0>         0.5700
     24 O3          8.1082    3.9073   -1.1237 O.2       1 <0>        -0.5380
     25 N4          8.4287    1.7865   -1.7177 N.am      1 <0>        -0.7281
     26 C18         7.8881    0.4451   -1.9216 C.3       1 <0>         0.1142
     27 C19         6.8968    0.0826   -0.8185 C.3       1 <0>        -0.1088
     28 H2          5.6236    4.5553   -0.9055 H         1 <0>         0.1390
     29 H3          3.3147    4.0586   -0.2976 H         1 <0>         0.1284
     30 H4          1.7635   -0.6809    0.4881 H         1 <0>         0.1736
     31 H5          5.4161   -1.7271    0.2891 H         1 <0>         0.0807
     32 H6          3.7912   -2.3788    0.6101 H         1 <0>         0.0798
     33 H7          3.2888   -2.3220   -1.8174 H         1 <0>         0.0692
     34 H8          4.9138   -1.6704   -2.1384 H         1 <0>         0.0708
     35 H9          5.1900   -4.0655   -0.6675 H         1 <0>         0.4005
     36 H10         6.5106   -5.7395   -2.3157 H         1 <0>         0.1069
     37 H11         4.8856   -6.3911   -1.9947 H         1 <0>         0.0657
     38 H12         3.5370   -7.2051   -3.8205 H         1 <0>         0.0383
     39 H13         3.5018   -5.5230   -4.4039 H         1 <0>         0.1043
     40 H14         2.9903   -7.1673   -6.2203 H         1 <0>         0.0986
     41 H15         4.4616   -6.2233   -6.5597 H         1 <0>         0.0626
     42 H16         6.6382   -9.0109   -5.6447 H         1 <0>         0.1000
     43 H17         6.6401   -7.3242   -6.2160 H         1 <0>         0.0615
     44 H18         7.2011   -7.3925   -3.8202 H         1 <0>         0.0884
     45 H19         5.7096   -8.3030   -3.4777 H         1 <0>         0.0451
     46 H20         9.3597    1.9619   -1.9262 H         1 <0>         0.4054
     47 H21         7.3808    0.4061   -2.8856 H         1 <0>         0.0685
     48 H22         8.7063   -0.2750   -1.9189 H         1 <0>         0.0901
     49 H23         7.4330   -0.0434    0.1220 H         1 <0>         0.0897
     50 H24         6.3945   -0.8502   -1.0749 H         1 <0>         0.1006
@<TRIPOS>BOND
     1    1   22 ar
     2    1    2 ar
     3    1   28 1
     4    2    3 ar
     5    2   29 1
     6    3    7 1
     7    3    4 ar
     8    4    5 1
     9    4   21 ar
    10    5    6 2
    11    5    9 1
    12    6    7 1
    13    6   30 1
    14    7    8 1
    15    9   10 1
    16    9   31 1
    17    9   32 1
    18   10   11 1
    19   10   33 1
    20   10   34 1
    21   11   12 am
    22   11   35 1
    23   12   13 2
    24   12   14 1
    25   14   15 1
    26   14   36 1
    27   14   37 1
    28   15   20 1
    29   15   16 1
    30   16   17 1
    31   16   38 1
    32   16   39 1
    33   17   18 1
    34   17   40 1
    35   17   41 1
    36   18   19 1
    37   19   20 1
    38   19   42 1
    39   19   43 1
    40   20   44 1
    41   20   45 1
    42   21   27 1
    43   21   22 ar
    44   22   23 1
    45   23   24 2
    46   23   25 am
    47   25   26 1
    48   25   46 1
    49   26   27 1
    50   26   47 1
    51   26   48 1
    52   27   49 1
    53   27   50 1
@<TRIPOS>MOLECULE
CHEMBL82940
   64    68     0     0     0
SMALL
USER_CHARGES

@<TRIPOS>ATOM
      1 C1         -0.0165    1.3630    0.0095 C.ar      1 <0>        -0.0767
      2 C2          1.1650    2.0935    0.0022 C.ar      1 <0>        -0.1341
      3 C3          2.3792    1.4638   -0.0116 C.ar      1 <0>        -0.0446
      4 C4          2.4270    0.0703   -0.0190 C.ar      1 <0>        -0.1517
      5 C5          1.2278   -0.6733   -0.0137 C.ar      1 <0>         0.0109
      6 C6          0.0021   -0.0041    0.0020 C.ar      1 <0>        -0.1313
      7 C7          1.3000   -2.1416   -0.0277 C.2       1 <0>        -0.1767
      8 C8          2.4951   -2.7439   -0.0514 C.2       1 <0>         0.1627
      9 N1          3.6618   -2.0119   -0.0445 N.am      1 <0>        -0.6359
     10 C9          3.6929   -0.6699   -0.0319 C.2       1 <0>         0.5507
     11 O1          4.7562   -0.0762   -0.0309 O.2       1 <0>        -0.5202
     12 C10         2.6503   -4.2445   -0.1067 C.3       1 <0>        -0.1071
     13 C11         1.3888   -4.9467    0.3894 C.3       1 <0>         0.1267
     14 N2          0.2365   -4.3195   -0.2805 N.pl3     1 <0>        -1.0024
     15 C12        -0.0029   -2.9005   -0.0010 C.3       1 <0>         0.1794
     16 S1         -0.7432   -5.1780   -1.3031 S.o2      1 <0>         2.6114
     17 O2         -1.2900   -4.2053   -2.1830 O.2       1 <0>        -0.9390
     18 O3          0.0798   -6.2239   -1.8008 O.2       1 <0>        -0.9439
     19 C13        -2.0446   -5.8596   -0.2389 C.3       1 <0>        -0.6364
     20 C14        -3.0184   -6.6808   -1.0864 C.3       1 <0>         0.0664
     21 N3         -4.0722   -7.2328   -0.2246 N.3       1 <0>        -0.5313
     22 C15        -3.5192   -8.2074    0.7245 C.3       1 <0>         0.0477
     23 C16        -4.6136   -8.6512    1.6978 C.3       1 <0>        -0.1358
     24 C17        -5.7678   -9.2766    0.9097 C.3       1 <0>         0.0268
     25 C18        -6.2939   -8.2576   -0.1049 C.3       1 <0>        -0.1351
     26 C19        -5.1508   -7.8252   -1.0259 C.3       1 <0>         0.0515
     27 N4         -6.8467   -9.6516    1.8335 N.4       1 <0>        -0.3918
     28 C20        -7.9371  -10.3390    1.0954 C.3       1 <0>        -0.0061
     29 C21        -8.6673  -11.1373    2.2044 C.3       1 <0>        -0.1454
     30 C22        -7.5080  -11.6059    3.1135 C.3       1 <0>        -0.1449
     31 C23        -6.3516  -10.6306    2.8253 C.3       1 <0>        -0.0091
     32 H1         -0.9632    1.8824    0.0259 H         1 <0>         0.1312
     33 H2          1.1243    3.1727    0.0070 H         1 <0>         0.1330
     34 H3          3.2923    2.0406   -0.0169 H         1 <0>         0.1395
     35 H4         -0.9229   -0.5615    0.0085 H         1 <0>         0.1331
     36 H5          2.8462   -4.5460   -1.1356 H         1 <0>         0.1008
     37 H6          3.4932   -4.5400    0.5181 H         1 <0>         0.1009
     38 H7          1.4317   -6.0061    0.1367 H         1 <0>         0.1052
     39 H8          1.2991   -4.8266    1.4690 H         1 <0>         0.0858
     40 H9         -0.4610   -2.7980    0.9827 H         1 <0>         0.0840
     41 H10        -0.6751   -2.4917   -0.7554 H         1 <0>         0.1069
     42 H11        -1.5950   -6.4994    0.5204 H         1 <0>         0.1325
     43 H12        -2.5824   -5.0443    0.2450 H         1 <0>         0.1454
     44 H13        -3.4680   -6.0410   -1.8457 H         1 <0>         0.0997
     45 H14        -2.4805   -7.4961   -1.5702 H         1 <0>         0.0589
     46 H15        -3.1452   -9.0737    0.1790 H         1 <0>         0.0510
     47 H16        -2.7021   -7.7486    1.2814 H         1 <0>         0.0989
     48 H17        -4.2068   -9.3862    2.3924 H         1 <0>         0.0932
     49 H18        -4.9784   -7.7874    2.2536 H         1 <0>         0.0962
     50 H19        -5.4121  -10.1631    0.3846 H         1 <0>         0.1339
     51 H20        -7.0876   -8.7115   -0.6984 H         1 <0>         0.0942
     52 H21        -6.6852   -7.3877    0.4225 H         1 <0>         0.0967
     53 H22        -5.5188   -7.0890   -1.7405 H         1 <0>         0.1019
     54 H23        -4.7691   -8.6934   -1.5633 H         1 <0>         0.0512
     55 H24        -8.6093   -9.6129    0.6381 H         1 <0>         0.1356
     56 H25        -7.5271  -11.0126    0.3429 H         1 <0>         0.1325
     57 H26        -9.3533  -10.4936    2.7551 H         1 <0>         0.0984
     58 H27        -9.1948  -11.9919    1.7808 H         1 <0>         0.1167
     59 H28        -7.8011  -11.5460    4.1616 H         1 <0>         0.1053
     60 H29        -7.2159  -12.6248    2.8592 H         1 <0>         0.1034
     61 H30        -5.5000  -11.1747    2.4169 H         1 <0>         0.1288
     62 H31        -6.0622  -10.1166    3.7419 H         1 <0>         0.1315
     63 H32         4.5051   -2.4912   -0.0489 H         1 <0>         0.4136
     64 H33        -7.2047   -8.8326    2.3017 H         1 <0>         0.4257
@<TRIPOS>BOND
     1    1    6 ar
     2    1    2 ar
     3    1   32 1
     4    2    3 ar
     5    2   33 1
     6    3    4 ar
     7    3   34 1
     8    4   10 1
     9    4    5 ar
    10    5    6 ar
    11    5    7 1
    12    6   35 1
    13    7   15 1
    14    7    8 2
    15    8    9 1
    16    8   12 1
    17    9   10 am
    18    9   63 1
    19   10   11 2
    20   12   13 1
    21   12   36 1
    22   12   37 1
    23   13   14 1
    24   13   38 1
    25   13   39 1
    26   14   15 1
    27   14   16 1
    28   15   40 1
    29   15   41 1
    30   16   17 2
    31   16   18 2
    32   16   19 1
    33   19   20 1
    34   19   42 1
    35   19   43 1
    36   20   21 1
    37   20   44 1
    38   20   45 1
    39   21   26 1
    40   21   22 1
    41   22   23 1
    42   22   46 1
    43   22   47 1
    44   23   24 1
    45   23   48 1
    46   23   49 1
    47   24   25 1
    48   24   27 1
    49   24   50 1
    50   25   26 1
    51   25   51 1
    52   25   52 1
    53   26   53 1
    54   26   54 1
    55   27   31 1
    56   27   28 1
    57   27   64 1
    58   28   29 1
    59   28   55 1
    60   28   56 1
    61   29   30 1
    62   29   57 1
    63   29   58 1
    64   30   31 1
    65   30   59 1
    66   30   60 1
    67   31   61 1
    68   31   62 1
@<TRIPOS>MOLECULE
CHEMBL443798
   45    48     0     0     0
SMALL
USER_CHARGES

@<TRIPOS>ATOM
      1 C1         -0.0166    1.3752    0.0096 C.ar      1 <0>        -0.1176
      2 C2          1.1704    2.0863    0.0021 C.ar      1 <0>        -0.0952
      3 C3          2.3827    1.4202   -0.0131 C.ar      1 <0>        -0.0792
      4 C4          2.4154    0.0408   -0.0208 C.ar      1 <0>        -0.0416
      5 C5          1.2219   -0.6823   -0.0133 C.ar      1 <0>        -0.0341
      6 C6          0.0021   -0.0041    0.0020 C.ar      1 <0>        -0.0993
      7 C7          1.2494   -2.1607   -0.0220 C.2       1 <0>         0.3321
      8 N1          0.1463   -2.9685   -0.0213 N.pl3     1 <0>        -0.5938
      9 H1         -0.7798   -2.6800   -0.0156 H         1 <0>         0.4248
     10 C8          0.6002   -4.2739   -0.0311 C.ar      1 <0>         0.0394
     11 C9         -0.0293   -5.5098   -0.0356 C.ar      1 <0>        -0.0791
     12 C10         0.7192   -6.6710   -0.0459 C.ar      1 <0>        -0.1132
     13 C11         2.1009   -6.6195   -0.0519 C.ar      1 <0>        -0.0855
     14 C12         2.7595   -5.3925   -0.0476 C.ar      1 <0>        -0.0905
     15 C13         2.0042   -4.1992   -0.0375 C.ar      1 <0>         0.1065
     16 N2          2.3363   -2.8961   -0.0373 N.2       1 <0>        -0.4531
     17 C14         4.2321   -5.3397   -0.0534 C.2       1 <0>         0.5575
     18 O1          4.8021   -4.2654   -0.0496 O.2       1 <0>        -0.5104
     19 N3          4.9474   -6.4820   -0.0630 N.am      1 <0>        -0.8555
     20 C15         3.6706    2.2028   -0.0217 C.3       1 <0>         0.0931
     21 N4          4.1025    2.4500    1.3604 N.3       1 <0>        -0.5313
     22 C16         3.1630    3.3429    2.0543 C.3       1 <0>         0.0136
     23 C17         3.6176    3.5255    3.5048 C.3       1 <0>         0.0631
     24 O2          4.9556    4.0303    3.5198 O.3       1 <0>        -0.3856
     25 C18         5.8973    3.1851    2.8532 C.3       1 <0>         0.0629
     26 C19         5.4658    2.9991    1.3961 C.3       1 <0>         0.0175
     27 H2         -0.9597    1.9012    0.0260 H         1 <0>         0.1309
     28 H3          1.1503    3.1661    0.0077 H         1 <0>         0.1252
     29 H4          3.3625   -0.4781   -0.0330 H         1 <0>         0.1436
     30 H5         -0.9251   -0.5579    0.0079 H         1 <0>         0.1203
     31 H6         -1.1079   -5.5646   -0.0307 H         1 <0>         0.1301
     32 H7          0.2201   -7.6287   -0.0490 H         1 <0>         0.1400
     33 H8          2.6724   -7.5358   -0.0596 H         1 <0>         0.1355
     34 H9          4.4928   -7.3389   -0.0661 H         1 <0>         0.3984
     35 H10         5.9168   -6.4472   -0.0669 H         1 <0>         0.4053
     36 H11         4.4382    1.6335   -0.5459 H         1 <0>         0.0906
     37 H12         3.5139    3.1546   -0.5292 H         1 <0>         0.0486
     38 H13         3.1443    4.3112    1.5541 H         1 <0>         0.0434
     39 H14         2.1651    2.9048    2.0380 H         1 <0>         0.0892
     40 H15         2.9565    4.2316    4.0072 H         1 <0>         0.0980
     41 H16         3.5849    2.5655    4.0200 H         1 <0>         0.0601
     42 H17         6.8850    3.6451    2.8844 H         1 <0>         0.0997
     43 H18         5.9309    2.2152    3.3495 H         1 <0>         0.0615
     44 H19         6.1488    2.3100    0.8994 H         1 <0>         0.0896
     45 H20         5.4839    3.9619    0.8854 H         1 <0>         0.0446
@<TRIPOS>BOND
     1    1    6 ar
     2    1    2 ar
     3    1   27 1
     4    2    3 ar
     5    2   28 1
     6    3    4 ar
     7    3   20 1
     8    4    5 ar
     9    4   29 1
    10    5    6 ar
    11    5    7 1
    12    6   30 1
    13    7   16 2
    14    7    8 1
    15    8    9 1
    16    8   10 1
    17   10   15 ar
    18   10   11 ar
    19   11   12 ar
    20   11   31 1
    21   12   13 ar
    22   12   32 1
    23   13   14 ar
    24   13   33 1
    25   14   15 ar
    26   14   17 1
    27   15   16 1
    28   17   18 2
    29   17   19 am
    30   19   34 1
    31   19   35 1
    32   20   21 1
    33   20   36 1
    34   20   37 1
    35   21   26 1
    36   21   22 1
    37   22   23 1
    38   22   38 1
    39   22   39 1
    40   23   24 1
    41   23   40 1
    42   23   41 1
    43   24   25 1
    44   25   26 1
    45   25   42 1
    46   25   43 1
    47   26   44 1
    48   26   45 1
@<TRIPOS>MOLECULE
CHEMBL371425
   40    42     0     0     0
SMALL
USER_CHARGES

@<TRIPOS>ATOM
      1 C1         -1.9031   -3.0883   -0.7516 C.3       1 <0>        -0.1393
      2 C2         -0.8370   -2.0702   -0.3421 C.3       1 <0>        -0.1429
      3 C3         -0.1139   -2.5656    0.8839 C.2       1 <0>         0.5092
      4 O1         -0.4211   -3.6284    1.3811 O.2       1 <0>        -0.5153
      5 N1          0.8741   -1.8277    1.4277 N.am      1 <0>        -0.6775
      6 C4          1.4797   -2.2395    2.6200 C.ar      1 <0>         0.1423
      7 C5          1.8956   -1.2966    3.5512 C.ar      1 <0>        -0.1432
      8 C6          2.4930   -1.7062    4.7268 C.ar      1 <0>        -0.0994
      9 C7          2.6778   -3.0538    4.9774 C.ar      1 <0>        -0.1175
     10 C8          2.2653   -3.9949    4.0523 C.ar      1 <0>        -0.0599
     11 C9          1.6611   -3.5918    2.8773 C.ar      1 <0>        -0.1036
     12 C10         2.4691   -5.4621    4.3292 C.3       1 <0>        -0.0173
     13 C11         1.2635   -6.0097    5.0487 C.2       1 <0>         0.1380
     14 C12         1.2211   -7.4198    5.4363 C.ar      1 <0>        -0.0575
     15 C13         2.2754   -8.2922    5.1594 C.ar      1 <0>        -0.0983
     16 C14         2.1886   -9.6015    5.5423 C.ar      1 <0>        -0.0877
     17 C15         1.0644  -10.0785    6.2040 C.ar      1 <0>        -0.1124
     18 C16         0.0085   -9.2410    6.4901 C.ar      1 <0>        -0.0546
     19 C17         0.0753   -7.9013    6.1099 C.ar      1 <0>        -0.1263
     20 C18        -1.0155   -6.9584    6.3865 C.2       1 <0>         0.5283
     21 O2         -2.0224   -7.3266    6.9647 O.2       1 <0>        -0.5238
     22 N2         -0.8813   -5.6761    5.9884 N.am      1 <0>        -0.5329
     23 H1         -1.5987   -5.0484    6.1683 H         1 <0>         0.4359
     24 N3          0.2639   -5.2279    5.3297 N.2       1 <0>        -0.2132
     25 H2         -2.6154   -3.2163    0.0635 H         1 <0>         0.0623
     26 H3         -2.4261   -2.7300   -1.6383 H         1 <0>         0.0643
     27 H4         -1.4273   -4.0440   -0.9717 H         1 <0>         0.0624
     28 H5         -0.1246   -1.9423   -1.1571 H         1 <0>         0.0965
     29 H6         -1.3127   -1.1146   -0.1219 H         1 <0>         0.0965
     30 H7          1.1653   -1.0111    0.9926 H         1 <0>         0.4111
     31 H8          1.7522   -0.2441    3.3558 H         1 <0>         0.1235
     32 H9          2.8166   -0.9735    5.4513 H         1 <0>         0.1259
     33 H10         3.1456   -3.3716    5.8975 H         1 <0>         0.1213
     34 H11         1.3344   -4.3277    2.1574 H         1 <0>         0.1364
     35 H12         2.6029   -5.9944    3.3874 H         1 <0>         0.1047
     36 H13         3.3546   -5.5950    4.9507 H         1 <0>         0.1064
     37 H14         3.1550   -7.9344    4.6450 H         1 <0>         0.1414
     38 H15         3.0054  -10.2745    5.3271 H         1 <0>         0.1361
     39 H16         1.0172  -11.1169    6.4969 H         1 <0>         0.1369
     40 H17        -0.8629   -9.6188    7.0043 H         1 <0>         0.1431
@<TRIPOS>BOND
     1    1    2 1
     2    1   25 1
     3    1   26 1
     4    1   27 1
     5    2    3 1
     6    2   28 1
     7    2   29 1
     8    3    4 2
     9    3    5 am
    10    5    6 1
    11    5   30 1
    12    6   11 ar
    13    6    7 ar
    14    7    8 ar
    15    7   31 1
    16    8    9 ar
    17    8   32 1
    18    9   10 ar
    19    9   33 1
    20   10   11 ar
    21   10   12 1
    22   11   34 1
    23   12   13 1
    24   12   35 1
    25   12   36 1
    26   13   24 2
    27   13   14 1
    28   14   19 ar
    29   14   15 ar
    30   15   16 ar
    31   15   37 1
    32   16   17 ar
    33   16   38 1
    34   17   18 ar
    35   17   39 1
    36   18   19 ar
    37   18   40 1
    38   19   20 1
    39   20   21 2
    40   20   22 am
    41   22   23 1
    42   22   24 1
@<TRIPOS>MOLECULE
CHEMBL521714
   41    43     0     0     0
SMALL
USER_CHARGES

@<TRIPOS>ATOM
      1 C1         -0.0187    1.5258    0.0104 C.3       1 <0>        -0.1755
      2 C2          0.0021   -0.0041    0.0020 C.3       1 <0>         0.0205
      3 C3         -1.4035   -0.5271    0.1430 C.3       1 <0>        -0.1394
      4 C4         -2.3314    0.4225    0.9257 C.3       1 <0>        -0.1413
      5 C5         -1.6502    1.0305    2.1638 C.3       1 <0>        -0.0394
      6 N1         -0.8513    0.0472    2.8586 N.4       1 <0>        -0.4988
      7 C6          0.5438    0.2098    2.4135 C.3       1 <0>        -0.0113
      8 C7          0.8572   -0.5161    1.1862 C.3       1 <0>        -0.1405
      9 C8          0.5944   -0.4924   -1.2948 C.2       1 <0>         0.2758
     10 N2         -0.0409   -0.4782   -2.4957 N.pl3     1 <0>        -0.5925
     11 H1         -0.9400   -0.1575   -2.6679 H         1 <0>         0.4235
     12 C9          0.8342   -1.0057   -3.4256 C.ar      1 <0>         0.0426
     13 C10         0.7615   -1.2450   -4.7903 C.ar      1 <0>        -0.0816
     14 C11         1.8370   -1.7996   -5.4560 C.ar      1 <0>        -0.1024
     15 C12         2.9968   -2.1228   -4.7757 C.ar      1 <0>        -0.0818
     16 C13         3.0964   -1.8927   -3.4061 C.ar      1 <0>        -0.0873
     17 C14         2.0032   -1.3269   -2.7165 C.ar      1 <0>         0.0993
     18 N3          1.7930   -0.9850   -1.4300 N.2       1 <0>        -0.4527
     19 C15         4.3336   -2.2374   -2.6826 C.2       1 <0>         0.5601
     20 O1          4.4152   -2.0342   -1.4864 O.2       1 <0>        -0.5187
     21 N4          5.3745   -2.7776   -3.3469 N.am      1 <0>        -0.8518
     22 H2          0.7601    1.9033   -0.6522 H         1 <0>         0.0791
     23 H3         -0.9910    1.8778   -0.3341 H         1 <0>         0.0805
     24 H4          0.1601    1.8860    1.0235 H         1 <0>         0.0788
     25 H5         -1.8204   -0.6823   -0.8521 H         1 <0>         0.0881
     26 H6         -1.3695   -1.4868    0.6587 H         1 <0>         0.0802
     27 H7         -2.6467    1.2302    0.2651 H         1 <0>         0.1099
     28 H8         -3.2135   -0.1321    1.2459 H         1 <0>         0.0970
     29 H9         -1.0091    1.8543    1.8501 H         1 <0>         0.1439
     30 H10        -2.4147    1.4122    2.8405 H         1 <0>         0.1333
     31 H11        -0.9126    0.1981    3.8543 H         1 <0>         0.4356
     32 H12         0.7357    1.2702    2.2496 H         1 <0>         0.1375
     33 H13         1.2052   -0.1425    3.2051 H         1 <0>         0.1385
     34 H14         0.6591   -1.5772    1.3379 H         1 <0>         0.0964
     35 H15         1.9126   -0.3804    0.9502 H         1 <0>         0.1412
     36 H16        -0.1385   -0.9972   -5.3334 H         1 <0>         0.1326
     37 H17         1.7715   -1.9831   -6.5183 H         1 <0>         0.1446
     38 H18         3.8295   -2.5563   -5.3096 H         1 <0>         0.1395
     39 H19         5.3095   -2.9396   -4.3010 H         1 <0>         0.4008
     40 H20         6.1886   -3.0044   -2.8708 H         1 <0>         0.4082
     41 H21        -1.1769   -0.8805    2.6317 H         1 <0>         0.4275
@<TRIPOS>BOND
     1    1    2 1
     2    1   22 1
     3    1   23 1
     4    1   24 1
     5    2    8 1
     6    2    3 1
     7    2    9 1
     8    3    4 1
     9    3   25 1
    10    3   26 1
    11    4    5 1
    12    4   27 1
    13    4   28 1
    14    5    6 1
    15    5   29 1
    16    5   30 1
    17    6    7 1
    18    6   31 1
    19    6   41 1
    20    7    8 1
    21    7   32 1
    22    7   33 1
    23    8   34 1
    24    8   35 1
    25    9   18 2
    26    9   10 1
    27   10   11 1
    28   10   12 1
    29   12   17 ar
    30   12   13 ar
    31   13   14 ar
    32   13   36 1
    33   14   15 ar
    34   14   37 1
    35   15   16 ar
    36   15   38 1
    37   16   17 ar
    38   16   19 1
    39   17   18 1
    40   19   20 2
    41   19   21 am
    42   21   39 1
    43   21   40 1
@<TRIPOS>MOLECULE
CHEMBL521714__1
   41    43     0     0     0
SMALL
USER_CHARGES

@<TRIPOS>ATOM
      1 C1         -0.0187    1.5258    0.0104 C.3       1 <0>        -0.1917
      2 C2          0.0021   -0.0041    0.0020 C.3       1 <0>         0.0181
      3 C3          0.5453   -0.4887   -1.3574 C.3       1 <0>        -0.1226
      4 C4          2.0819   -0.4056   -1.4213 C.3       1 <0>        -0.1440
      5 C5          2.5932    0.8605   -0.7806 C.3       1 <0>        -0.0368
      6 N1          2.9730    0.5542    0.6123 N.4       1 <0>        -0.4854
      7 C6          1.8953    0.5837    1.4991 C.3       1 <0>        -0.0571
      8 C7          0.8377   -0.4873    1.1597 C.3       1 <0>        -0.1215
      9 C8         -1.4067   -0.5117    0.1715 C.2       1 <0>         0.2738
     10 N2         -2.4921   -0.0336   -0.4913 N.pl3     1 <0>        -0.5909
     11 H1         -2.4980    0.6820   -1.1461 H         1 <0>         0.4241
     12 C9         -3.5857   -0.7582   -0.0580 C.ar      1 <0>         0.0421
     13 C10        -4.9392   -0.7352   -0.3619 C.ar      1 <0>        -0.0812
     14 C11        -5.8052   -1.6136    0.2593 C.ar      1 <0>        -0.1028
     15 C12        -5.3384   -2.5250    1.1887 C.ar      1 <0>        -0.0818
     16 C13        -3.9848   -2.5697    1.5118 C.ar      1 <0>        -0.0878
     17 C14        -3.0918   -1.6764    0.8832 C.ar      1 <0>         0.0993
     18 N3         -1.7618   -1.4772    0.9710 N.2       1 <0>        -0.4549
     19 C15        -3.4889   -3.5423    2.5024 C.2       1 <0>         0.5601
     20 O1         -2.3056   -3.5770    2.7808 O.2       1 <0>        -0.5190
     21 N4         -4.3469   -4.3930    3.0994 N.am      1 <0>        -0.8518
     22 H2          0.9821    1.9015    0.2233 H         1 <0>         0.0850
     23 H3         -0.3439    1.8901   -0.9640 H         1 <0>         0.0799
     24 H4         -0.7090    1.8756    0.7780 H         1 <0>         0.0824
     25 H5          0.2388   -1.5229   -1.5141 H         1 <0>         0.0900
     26 H6          0.1229    0.1295   -2.1495 H         1 <0>         0.0843
     27 H7          2.5071   -1.2645   -0.9021 H         1 <0>         0.0887
     28 H8          2.3970   -0.4294   -2.4645 H         1 <0>         0.1131
     29 H9          3.4634    1.2234   -1.3275 H         1 <0>         0.1394
     30 H10         1.8103    1.6189   -0.7897 H         1 <0>         0.1536
     31 H11         3.3896   -0.3643    0.6396 H         1 <0>         0.4248
     32 H12         2.2636    0.4101    2.5103 H         1 <0>         0.1397
     33 H13         1.4290    1.5680    1.4576 H         1 <0>         0.1464
     34 H14         0.1979   -0.6554    2.0261 H         1 <0>         0.1306
     35 H15         1.3356   -1.4177    0.8866 H         1 <0>         0.0989
     36 H16        -5.3167   -0.0283   -1.0859 H         1 <0>         0.1326
     37 H17        -6.8574   -1.5881    0.0172 H         1 <0>         0.1445
     38 H18        -6.0276   -3.2054    1.6666 H         1 <0>         0.1393
     39 H19        -5.2907   -4.3653    2.8774 H         1 <0>         0.4008
     40 H20        -4.0206   -5.0330    3.7513 H         1 <0>         0.4081
     41 H21         3.6603    1.2277    0.9158 H         1 <0>         0.4297
@<TRIPOS>BOND
     1    1    2 1
     2    1   22 1
     3    1   23 1
     4    1   24 1
     5    2    8 1
     6    2    3 1
     7    2    9 1
     8    3    4 1
     9    3   25 1
    10    3   26 1
    11    4    5 1
    12    4   27 1
    13    4   28 1
    14    5    6 1
    15    5   29 1
    16    5   30 1
    17    6    7 1
    18    6   31 1
    19    6   41 1
    20    7    8 1
    21    7   32 1
    22    7   33 1
    23    8   34 1
    24    8   35 1
    25    9   18 2
    26    9   10 1
    27   10   11 1
    28   10   12 1
    29   12   17 ar
    30   12   13 ar
    31   13   14 ar
    32   13   36 1
    33   14   15 ar
    34   14   37 1
    35   15   16 ar
    36   15   38 1
    37   16   17 ar
    38   16   19 1
    39   17   18 1
    40   19   20 2
    41   19   21 am
    42   21   39 1
    43   21   40 1
@<TRIPOS>MOLECULE
CHEMBL108919
   57    60     0     0     0
SMALL
USER_CHARGES

@<TRIPOS>ATOM
      1 C1         -0.0169    1.3969    0.0097 C.ar      1 <0>         0.0007
      2 C2          1.1574    2.0936    0.0023 C.ar      1 <0>        -0.2138
      3 C3          2.3731    1.4135   -0.0130 C.ar      1 <0>         0.2771
      4 C4          2.3966    0.0206   -0.0212 C.ar      1 <0>        -0.2123
      5 C5          1.2270   -0.6840   -0.0142 C.ar      1 <0>        -0.0153
      6 C6          0.0021   -0.0041    0.0020 C.ar      1 <0>        -0.2447
      7 C7         -1.2575   -0.7571    0.0105 C.2       1 <0>         0.4003
      8 O1         -2.3171   -0.1667    0.0242 O.2       1 <0>        -0.4635
      9 C8         -1.2346   -2.2639    0.0022 C.3       1 <0>         0.0725
     10 N1         -2.6081   -2.7733    0.0131 N.am      1 <0>        -0.7219
     11 C9         -2.8342   -4.1019    0.0082 C.2       1 <0>         0.5246
     12 O2         -1.9005   -4.8759   -0.0052 O.2       1 <0>        -0.5349
     13 C10        -4.2471   -4.6259    0.0194 C.3       1 <0>        -0.1629
     14 C11        -4.2239   -6.1557    0.0110 C.3       1 <0>         0.1167
     15 N2         -5.5974   -6.6650    0.0219 N.am      1 <0>        -0.5389
     16 C12        -6.2154   -6.8991    1.2404 C.2       1 <0>         0.2151
     17 C13        -7.4756   -7.3409    1.2370 C.2       1 <0>        -0.2487
     18 C14        -8.1125   -7.6013   -0.0151 C.2       1 <0>         0.5554
     19 O3         -9.2486   -8.0392   -0.0341 O.2       1 <0>        -0.5055
     20 N3         -7.4710   -7.3675   -1.1706 N.am      1 <0>        -0.6561
     21 H1         -7.9099   -7.5427   -2.0177 H         1 <0>         0.4349
     22 C15        -6.2149   -6.8834   -1.1440 C.2       1 <0>         0.6980
     23 O4         -5.6366   -6.6473   -2.1872 O.2       1 <0>        -0.5312
     24 C16        -8.3382   -7.5779    2.4515 C.3       1 <0>        -0.0097
     25 S1         -7.3043   -7.7449    3.9331 S.3       1 <0>        -0.2351
     26 C17        -6.1272   -6.3717    3.7148 C.3       1 <0>        -0.0829
     27 C18        -5.3455   -6.6368    2.4360 C.3       1 <0>        -0.1031
     28 N4          3.5652    2.1262   -0.0206 N.pl3     1 <0>        -0.6233
     29 C19         3.6877    3.5913   -0.0074 C.3       1 <0>         0.1061
     30 C20         5.1937    3.9255   -0.0489 C.3       1 <0>        -0.1332
     31 C21         5.8183    2.6405   -0.6540 C.3       1 <0>        -0.1346
     32 C22         4.9173    1.5389   -0.0366 C.3       1 <0>         0.1049
     33 H2         -0.9589    1.9249    0.0261 H         1 <0>         0.1332
     34 H3          1.1436    3.1735    0.0078 H         1 <0>         0.1264
     35 H4          3.3413   -0.5027   -0.0334 H         1 <0>         0.1278
     36 H5          1.2462   -1.7638   -0.0209 H         1 <0>         0.1324
     37 H6         -0.7241   -2.6146   -0.8948 H         1 <0>         0.1060
     38 H7         -0.7065   -2.6242    0.8850 H         1 <0>         0.1062
     39 H8         -3.3549   -2.1543    0.0238 H         1 <0>         0.4117
     40 H9         -4.7576   -4.2752    0.9164 H         1 <0>         0.1023
     41 H10        -4.7753   -4.2657   -0.8634 H         1 <0>         0.1085
     42 H11        -3.7134   -6.5064   -0.8860 H         1 <0>         0.1174
     43 H12        -3.6958   -6.5159    0.8938 H         1 <0>         0.1114
     44 H13        -9.0198   -6.7371    2.5798 H         1 <0>         0.1026
     45 H14        -8.9171   -8.4906    2.3105 H         1 <0>         0.1275
     46 H15        -6.6691   -5.4299    3.6288 H         1 <0>         0.0958
     47 H16        -5.4449   -6.3308    4.5638 H         1 <0>         0.1260
     48 H17        -4.7013   -7.5017    2.5944 H         1 <0>         0.1175
     49 H18        -4.7168   -5.7715    2.2263 H         1 <0>         0.1057
     50 H19         3.1902    4.0127   -0.8810 H         1 <0>         0.0670
     51 H20         3.2439    3.9922    0.9038 H         1 <0>         0.0670
     52 H21         5.3804    4.7851   -0.6927 H         1 <0>         0.0850
     53 H22         5.5769    4.1044    0.9557 H         1 <0>         0.0784
     54 H23         5.7455    2.6455   -1.7415 H         1 <0>         0.0781
     55 H24         6.8534    2.5211   -0.3338 H         1 <0>         0.0869
     56 H25         5.2412    1.3048    0.9774 H         1 <0>         0.0685
     57 H26         4.9345    0.6433   -0.6576 H         1 <0>         0.0763
@<TRIPOS>BOND
     1    1    6 ar
     2    1    2 ar
     3    1   33 1
     4    2    3 ar
     5    2   34 1
     6    3    4 ar
     7    3   28 1
     8    4    5 ar
     9    4   35 1
    10    5    6 ar
    11    5   36 1
    12    6    7 1
    13    7    8 2
    14    7    9 1
    15    9   10 1
    16    9   37 1
    17    9   38 1
    18   10   11 am
    19   10   39 1
    20   11   12 2
    21   11   13 1
    22   13   14 1
    23   13   40 1
    24   13   41 1
    25   14   15 1
    26   14   42 1
    27   14   43 1
    28   15   22 am
    29   15   16 1
    30   16   27 1
    31   16   17 2
    32   17   18 1
    33   17   24 1
    34   18   19 2
    35   18   20 am
    36   20   21 1
    37   20   22 am
    38   22   23 2
    39   24   25 1
    40   24   44 1
    41   24   45 1
    42   25   26 1
    43   26   27 1
    44   26   46 1
    45   26   47 1
    46   27   48 1
    47   27   49 1
    48   28   32 1
    49   28   29 1
    50   29   30 1
    51   29   50 1
    52   29   51 1
    53   30   31 1
    54   30   52 1
    55   30   53 1
    56   31   32 1
    57   31   54 1
    58   31   55 1
    59   32   56 1
    60   32   57 1
@<TRIPOS>MOLECULE
CHEMBL596142
   42    45     0     0     0
SMALL
USER_CHARGES

@<TRIPOS>ATOM
      1 C1         -0.0160    1.3856    0.0577 C.ar      1 <0>        -0.1708
      2 C2          1.1183    2.1329    0.0446 C.ar      1 <0>        -0.0029
      3 C3          2.3833    1.5140    0.0237 C.ar      1 <0>        -0.2070
      4 C4          3.6912    1.9658    0.0065 C.2       1 <0>         0.0901
      5 N1          4.4965    0.8916   -0.0095 N.pl3     1 <0>        -0.2825
      6 N2          3.7294   -0.2793   -0.0029 N.2       1 <0>        -0.2634
      7 C5          2.4546    0.0433    0.0169 C.ar      1 <0>         0.1439
      8 C6          1.1958   -0.7089    0.0322 C.ar      1 <0>        -0.1265
      9 C7          0.0027   -0.0034    0.0520 C.ar      1 <0>        -0.0191
     10 C8          1.1991   -2.1804    0.0259 C.2       1 <0>         0.5624
     11 O1          2.2539   -2.7862    0.0077 O.2       1 <0>        -0.5247
     12 N3          0.0336   -2.8570    0.0402 N.am      1 <0>        -0.8537
     13 C9          5.8933    0.9359   -0.0301 C.ar      1 <0>         0.1749
     14 C10         6.5486    2.1626   -0.0295 C.ar      1 <0>        -0.1399
     15 C11         7.9249    2.2100   -0.0497 C.ar      1 <0>        -0.0278
     16 C12         8.6628    1.0238   -0.0709 C.ar      1 <0>        -0.1425
     17 C13         8.0012   -0.2068   -0.0714 C.ar      1 <0>        -0.0604
     18 C14         6.6248   -0.2468   -0.0454 C.ar      1 <0>        -0.1113
     19 C15        10.1384    1.0706   -0.0931 C.2       1 <0>         0.5652
     20 O2         10.7127    2.1422   -0.0931 O.2       1 <0>        -0.5072
     21 N4         10.8488   -0.0746   -0.1135 N.am      1 <0>        -0.6677
     22 C16        12.2375   -0.0317   -0.2333 C.ar      1 <0>         0.1868
     23 C17        12.9753    0.9912    0.3609 C.ar      1 <0>        -0.1748
     24 C18        14.3474    0.9974    0.2193 C.ar      1 <0>         0.1176
     25 N5         14.9609    0.0522   -0.4676 N.ar      1 <0>        -0.4951
     26 C19        14.2981   -0.9325   -1.0446 C.ar      1 <0>         0.1183
     27 C20        12.9246   -1.0138   -0.9453 C.ar      1 <0>        -0.1994
     28 H1         -0.9701    1.8914    0.0779 H         1 <0>         0.1340
     29 H2          1.0495    3.2107    0.0499 H         1 <0>         0.1331
     30 H3          4.0077    2.9983    0.0056 H         1 <0>         0.1945
     31 H4         -0.9316   -0.5449    0.0631 H         1 <0>         0.1356
     32 H5         -0.8075   -2.3739    0.0547 H         1 <0>         0.3992
     33 H6          0.0358   -3.8270    0.0360 H         1 <0>         0.4066
     34 H7          5.9775    3.0792   -0.0135 H         1 <0>         0.1439
     35 H8          8.4331    3.1629   -0.0496 H         1 <0>         0.1527
     36 H9          8.5686   -1.1256   -0.0881 H         1 <0>         0.1388
     37 H10         6.1128   -1.1977   -0.0409 H         1 <0>         0.1533
     38 H11        10.3940   -0.9287   -0.0449 H         1 <0>         0.4147
     39 H12        12.4795    1.7682    0.9238 H         1 <0>         0.1500
     40 H13        14.9270    1.7859    0.6761 H         1 <0>         0.1608
     41 H14        14.8382   -1.6862   -1.5982 H         1 <0>         0.1611
     42 H15        12.3887   -1.8246   -1.4163 H         1 <0>         0.1390
@<TRIPOS>BOND
     1    1    9 ar
     2    1    2 ar
     3    1   28 1
     4    2    3 ar
     5    2   29 1
     6    3    7 ar
     7    3    4 2
     8    4    5 1
     9    4   30 1
    10    5    6 1
    11    5   13 1
    12    6    7 2
    13    7    8 ar
    14    8    9 ar
    15    8   10 1
    16    9   31 1
    17   10   11 2
    18   10   12 am
    19   12   32 1
    20   12   33 1
    21   13   18 ar
    22   13   14 ar
    23   14   15 ar
    24   14   34 1
    25   15   16 ar
    26   15   35 1
    27   16   17 ar
    28   16   19 1
    29   17   18 ar
    30   17   36 1
    31   18   37 1
    32   19   20 2
    33   19   21 am
    34   21   22 1
    35   21   38 1
    36   22   27 ar
    37   22   23 ar
    38   23   24 ar
    39   23   39 1
    40   24   25 ar
    41   24   40 1
    42   25   26 ar
    43   26   27 ar
    44   26   41 1
    45   27   42 1
@<TRIPOS>MOLECULE
CHEMBL596143
   49    52     0     0     0
SMALL
USER_CHARGES

@<TRIPOS>ATOM
      1 C1         -0.0190    1.3152   -0.0301 C.ar      1 <0>        -0.1645
      2 C2          1.1085    2.0496   -0.2161 C.ar      1 <0>        -0.0071
      3 C3          2.3791    1.4550   -0.0909 C.ar      1 <0>        -0.2009
      4 C4          3.6829    1.9027   -0.2124 C.2       1 <0>         0.0870
      5 N1          4.4979    0.8621    0.0231 N.pl3     1 <0>        -0.2911
      6 N2          3.7415   -0.2822    0.3022 N.2       1 <0>        -0.2636
      7 C5          2.4639    0.0240    0.2455 C.ar      1 <0>         0.1481
      8 C6          1.2119   -0.7157    0.4352 C.ar      1 <0>        -0.1275
      9 C7          0.0124   -0.0367    0.2883 C.ar      1 <0>        -0.0158
     10 C8          1.2286   -2.1480    0.7726 C.2       1 <0>         0.5636
     11 O1          2.2889   -2.7313    0.8970 O.2       1 <0>        -0.5278
     12 N3          0.0693   -2.8136    0.9437 N.am      1 <0>        -0.8519
     13 C9          5.8944    0.9137   -0.0065 C.ar      1 <0>         0.1870
     14 C10         6.5385    2.1128   -0.2917 C.ar      1 <0>        -0.1401
     15 C11         7.9144    2.1672   -0.3212 C.ar      1 <0>        -0.0336
     16 C12         8.6630    1.0161   -0.0643 C.ar      1 <0>        -0.1574
     17 C13         8.0128   -0.1868    0.2218 C.ar      1 <0>        -0.0670
     18 C14         6.6367   -0.2330    0.2549 C.ar      1 <0>        -0.1132
     19 C15        10.1386    1.0706   -0.0956 C.2       1 <0>         0.5666
     20 O2         10.7203    2.0455    0.3393 O.2       1 <0>        -0.5080
     21 N4         10.8404    0.0394   -0.6062 N.am      1 <0>        -0.6245
     22 C16        10.1087   -1.0705   -1.2496 C.3       1 <0>         0.0837
     23 C17        10.8202   -1.5315   -2.5346 C.3       1 <0>        -0.1601
     24 C18        11.3433   -0.3243   -3.2810 C.3       1 <0>        -0.0089
     25 N5         12.7291   -0.0777   -2.8886 N.4       1 <0>        -0.4876
     26 C19        12.8886    0.7462   -1.7523 C.3       1 <0>        -0.0460
     27 C20        12.2854    0.0623   -0.5096 C.3       1 <0>         0.0965
     28 H1         -0.9777    1.8025   -0.1292 H         1 <0>         0.1369
     29 H2          1.0299    3.0982   -0.4625 H         1 <0>         0.1348
     30 H3          3.9900    2.9096   -0.4536 H         1 <0>         0.1943
     31 H4         -0.9170   -0.5696    0.4246 H         1 <0>         0.1382
     32 H5         -0.7762   -2.3486    0.8444 H         1 <0>         0.4003
     33 H6          0.0803   -3.7577    1.1660 H         1 <0>         0.4080
     34 H7          5.9591    3.0023   -0.4905 H         1 <0>         0.1450
     35 H8          8.4140    3.0987   -0.5431 H         1 <0>         0.1457
     36 H9          8.5886   -1.0786    0.4205 H         1 <0>         0.1429
     37 H10         6.1334   -1.1615    0.4804 H         1 <0>         0.1547
     38 H11        10.0466   -1.9082   -0.5549 H         1 <0>         0.0927
     39 H12         9.1009   -0.7379   -1.4984 H         1 <0>         0.1109
     40 H13        11.6518   -2.1864   -2.2746 H         1 <0>         0.0933
     41 H14        10.1155   -2.0721   -3.1663 H         1 <0>         0.1279
     42 H15        11.2967   -0.5114   -4.3538 H         1 <0>         0.1407
     43 H16        10.7353    0.5466   -3.0361 H         1 <0>         0.1302
     44 H17        13.1700   -0.9660   -2.7022 H         1 <0>         0.4231
     45 H18        13.9501    0.9295   -1.5855 H         1 <0>         0.1490
     46 H19        12.3827    1.6967   -1.9216 H         1 <0>         0.1336
     47 H20        12.5802    0.6156    0.3821 H         1 <0>         0.1286
     48 H21        12.6602   -0.9590   -0.4414 H         1 <0>         0.1028
     49 H22        13.2077    0.3542   -3.6648 H         1 <0>         0.4305
@<TRIPOS>BOND
     1    1    9 ar
     2    1    2 ar
     3    1   28 1
     4    2    3 ar
     5    2   29 1
     6    3    7 ar
     7    3    4 2
     8    4    5 1
     9    4   30 1
    10    5    6 1
    11    5   13 1
    12    6    7 2
    13    7    8 ar
    14    8    9 ar
    15    8   10 1
    16    9   31 1
    17   10   11 2
    18   10   12 am
    19   12   32 1
    20   12   33 1
    21   13   18 ar
    22   13   14 ar
    23   14   15 ar
    24   14   34 1
    25   15   16 ar
    26   15   35 1
    27   16   17 ar
    28   16   19 1
    29   17   18 ar
    30   17   36 1
    31   18   37 1
    32   19   20 2
    33   19   21 am
    34   21   27 1
    35   21   22 1
    36   22   23 1
    37   22   38 1
    38   22   39 1
    39   23   24 1
    40   23   40 1
    41   23   41 1
    42   24   25 1
    43   24   42 1
    44   24   43 1
    45   25   26 1
    46   25   44 1
    47   25   49 1
    48   26   27 1
    49   26   45 1
    50   26   46 1
    51   27   47 1
    52   27   48 1
@<TRIPOS>MOLECULE
CHEMBL473036
   64    68     0     0     0
SMALL
USER_CHARGES

@<TRIPOS>ATOM
      1 C1          0.1543    1.3726    0.6405 C.ar      1 <0>        -0.1032
      2 C2          1.1690    2.0924    0.0427 C.ar      1 <0>        -0.0611
      3 C3          2.2215    1.4242   -0.5859 C.ar      1 <0>        -0.1366
      4 C4          2.2351    0.0283   -0.6024 C.ar      1 <0>        -0.1238
      5 C5          1.2161   -0.6856   -0.0012 C.ar      1 <0>         0.1689
      6 C6          0.1719   -0.0093    0.6217 C.ar      1 <0>        -0.0985
      7 N1          1.2336   -2.0849   -0.0201 N.am      1 <0>        -0.6713
      8 C7          0.0810   -2.7748    0.0896 C.2       1 <0>         0.5171
      9 O1         -0.9792   -2.1860    0.1036 O.2       1 <0>        -0.5164
     10 C8          0.1097   -4.2779    0.1949 C.3       1 <0>        -0.1255
     11 C9         -1.3209   -4.8086    0.3079 C.3       1 <0>        -0.1279
     12 C10        -1.2922   -6.3116    0.4131 C.2       1 <0>         0.5234
     13 O2         -0.2320   -6.9004    0.3991 O.2       1 <0>        -0.5294
     14 N2         -2.4448   -7.0015    0.5228 N.am      1 <0>        -0.7449
     15 C11        -2.4170   -8.4627    0.6251 C.3       1 <0>         0.2733
     16 O3         -2.4548   -8.8446    2.0016 O.3       1 <0>        -0.3768
     17 C12        -3.7615   -8.8091    2.5790 C.3       1 <0>         0.0617
     18 C13        -3.6823   -9.2344    4.0466 C.3       1 <0>         0.0927
     19 H1         -3.1923  -10.2048    4.1252 H         1 <0>         0.1069
     20 C14        -5.0995   -9.3129    4.6466 C.3       1 <0>         0.0474
     21 H2         -5.8425   -9.0022    3.9120 H         1 <0>         0.0884
     22 C15        -5.0642   -8.3208    5.8345 C.3       1 <0>         0.0366
     23 H3         -5.4797   -7.3550    5.5472 H         1 <0>         0.0865
     24 C16        -3.5445   -8.2071    6.1174 C.3       1 <0>         0.3194
     25 H4         -3.2025   -9.0476    6.7213 H         1 <0>         0.1231
     26 O4         -2.9494   -8.2543    4.8007 O.3       1 <0>        -0.3464
     27 N3         -3.2370   -6.9380    6.7815 N.pl3     1 <0>        -0.4703
     28 C17        -2.8345   -5.7862    6.1733 C.2       1 <0>         0.2624
     29 N4         -2.6502   -4.8546    7.0631 N.2       1 <0>        -0.4600
     30 C18        -2.9219   -5.3477    8.2953 C.ar      1 <0>        -0.1107
     31 C19        -3.3069   -6.6889    8.1288 C.ar      1 <0>         0.3169
     32 N5         -3.6346   -7.4044    9.1997 N.ar      1 <0>        -0.5470
     33 C20        -3.6030   -6.8671   10.4010 C.ar      1 <0>         0.3646
     34 N6         -3.2513   -5.6111   10.6067 N.ar      1 <0>        -0.5915
     35 C21        -2.8987   -4.8210    9.5977 C.ar      1 <0>         0.5087
     36 N7         -2.5326   -3.5055    9.8230 N.pl3     1 <0>        -0.8175
     37 O5         -5.7556   -8.8547    6.9654 O.3       1 <0>        -0.5241
     38 O6         -5.3755  -10.6376    5.1058 O.3       1 <0>        -0.5377
     39 C22         3.4829   -0.3781   -1.3454 C.3       1 <0>         0.1460
     40 N8          4.1527    0.8679   -1.7353 N.am      1 <0>        -0.7230
     41 C23         3.4221    1.9069   -1.2954 C.2       1 <0>         0.5622
     42 O7          3.7090    3.0766   -1.4590 O.2       1 <0>        -0.5213
     43 H5         -0.6561    1.8923    1.1299 H         1 <0>         0.1393
     44 H6          1.1486    3.1720    0.0609 H         1 <0>         0.1355
     45 H7         -0.6258   -0.5651    1.0921 H         1 <0>         0.1565
     46 H8          2.0753   -2.5582   -0.1121 H         1 <0>         0.4147
     47 H9          0.5829   -4.6954   -0.6939 H         1 <0>         0.1075
     48 H10         0.6763   -4.5695    1.0792 H         1 <0>         0.1097
     49 H11        -1.7941   -4.3911    1.1966 H         1 <0>         0.1056
     50 H12        -1.8875   -4.5170   -0.5765 H         1 <0>         0.1051
     51 H13        -3.2928   -6.5306    0.5340 H         1 <0>         0.4009
     52 H14        -3.2815   -8.8796    0.1085 H         1 <0>         0.0773
     53 H15        -1.5029   -8.8416    0.1679 H         1 <0>         0.1250
     54 H16        -4.1594   -7.7963    2.5152 H         1 <0>         0.0607
     55 H17        -4.4166   -9.4917    2.0377 H         1 <0>         0.0757
     56 H18        -2.6896   -5.6649    5.1100 H         1 <0>         0.2211
     57 H19        -3.8754   -7.4763   11.2502 H         1 <0>         0.2055
     58 H20        -2.2881   -2.9356    9.0772 H         1 <0>         0.4189
     59 H21        -2.5204   -3.1535   10.7268 H         1 <0>         0.4111
     60 H22        -6.6937   -9.0280    6.8071 H         1 <0>         0.3825
     61 H23        -6.2551  -10.7443    5.4933 H         1 <0>         0.3878
     62 H24         4.1319   -0.9646   -0.6950 H         1 <0>         0.0954
     63 H25         3.2199   -0.9553   -2.2318 H         1 <0>         0.0959
     64 H26         4.9853    0.9313   -2.2290 H         1 <0>         0.4272
@<TRIPOS>BOND
     1    1    6 ar
     2    1    2 ar
     3    1   43 1
     4    2    3 ar
     5    2   44 1
     6    3   41 1
     7    3    4 ar
     8    4    5 ar
     9    4   39 1
    10    5    6 ar
    11    5    7 1
    12    6   45 1
    13    7    8 am
    14    7   46 1
    15    8    9 2
    16    8   10 1
    17   10   11 1
    18   10   47 1
    19   10   48 1
    20   11   12 1
    21   11   49 1
    22   11   50 1
    23   12   13 2
    24   12   14 am
    25   14   15 1
    26   14   51 1
    27   15   16 1
    28   15   52 1
    29   15   53 1
    30   16   17 1
    31   17   18 1
    32   17   54 1
    33   17   55 1
    34   18   19 1
    35   18   26 1
    36   18   20 1
    37   20   21 1
    38   20   22 1
    39   20   38 1
    40   22   23 1
    41   22   24 1
    42   22   37 1
    43   24   25 1
    44   24   26 1
    45   24   27 1
    46   27   31 1
    47   27   28 1
    48   28   29 2
    49   28   56 1
    50   29   30 1
    51   30   35 ar
    52   30   31 ar
    53   31   32 ar
    54   32   33 ar
    55   33   34 ar
    56   33   57 1
    57   34   35 ar
    58   35   36 1
    59   36   58 1
    60   36   59 1
    61   37   60 1
    62   38   61 1
    63   39   40 1
    64   39   62 1
    65   39   63 1
    66   40   41 am
    67   40   64 1
    68   41   42 2
@<TRIPOS>MOLECULE
CHEMBL510733
   70    75     0     0     0
SMALL
USER_CHARGES

@<TRIPOS>ATOM
      1 C1          0.1349    1.3776   -0.6196 C.ar      1 <0>        -0.1060
      2 C2          1.1628    2.0927   -0.0391 C.ar      1 <0>        -0.0564
      3 C3          2.2311    1.4197    0.5569 C.ar      1 <0>        -0.1400
      4 C4          2.2468    0.0237    0.5585 C.ar      1 <0>        -0.1175
      5 C5          1.2139   -0.6855   -0.0240 C.ar      1 <0>         0.1648
      6 C6          0.1547   -0.0044   -0.6157 C.ar      1 <0>        -0.0871
      7 N1          1.2336   -2.0849   -0.0201 N.am      1 <0>        -0.6758
      8 C7          0.0810   -2.7748    0.0896 C.2       1 <0>         0.5157
      9 O1         -0.9792   -2.1860    0.1036 O.2       1 <0>        -0.4959
     10 C8          0.1097   -4.2779    0.1949 C.3       1 <0>         0.0378
     11 N2         -1.2638   -4.7874    0.3034 N.3       1 <0>        -0.5212
     12 C9         -1.8885   -4.3537    1.5602 C.3       1 <0>         0.0355
     13 C10        -3.3690   -4.7491    1.5540 C.3       1 <0>         0.1358
     14 N3         -3.4666   -6.1900    1.2758 N.am      1 <0>        -0.5944
     15 C11        -2.7510   -6.7230    0.1066 C.3       1 <0>         0.1169
     16 C12        -1.2949   -6.2500    0.1698 C.3       1 <0>         0.0413
     17 C13        -4.1929   -7.0004    2.0710 C.2       1 <0>         0.6532
     18 O2         -4.7780   -6.5428    3.0326 O.2       1 <0>        -0.5691
     19 O3         -4.2701   -8.3169    1.7998 O.3       1 <0>        -0.3546
     20 C14        -5.0574   -9.1165    2.6845 C.3       1 <0>         0.0911
     21 C15        -5.0263  -10.5736    2.2191 C.3       1 <0>         0.0929
     22 H1         -5.3358  -10.6360    1.1758 H         1 <0>         0.1111
     23 C16        -5.9657  -11.4240    3.0961 C.3       1 <0>         0.0487
     24 H2         -6.4077  -10.8143    3.8841 H         1 <0>         0.0925
     25 C17        -5.0409  -12.5070    3.7033 C.3       1 <0>         0.0366
     26 H3         -4.7204  -12.2268    4.7067 H         1 <0>         0.0885
     27 C18        -3.8440  -12.5011    2.7185 C.3       1 <0>         0.3206
     28 H4         -4.0720  -13.0955    1.8337 H         1 <0>         0.1253
     29 O4         -3.6994  -11.1060    2.3679 O.3       1 <0>        -0.3497
     30 N4         -2.6332  -13.0001    3.3752 N.pl3     1 <0>        -0.4709
     31 C19        -1.6691  -12.2434    3.9720 C.2       1 <0>         0.2619
     32 N5         -0.7359  -13.0116    4.4542 N.2       1 <0>        -0.4603
     33 C20        -1.0408  -14.3065    4.1982 C.ar      1 <0>        -0.1111
     34 C21        -2.2646  -14.3150    3.5075 C.ar      1 <0>         0.3174
     35 N6         -2.7914  -15.4787    3.1411 N.ar      1 <0>        -0.5467
     36 C22        -2.1797  -16.6101    3.4218 C.ar      1 <0>         0.3649
     37 N7         -1.0307  -16.6526    4.0711 N.ar      1 <0>        -0.5914
     38 C23        -0.4238  -15.5393    4.4699 C.ar      1 <0>         0.5087
     39 N8          0.7797  -15.5940    5.1507 N.pl3     1 <0>        -0.8176
     40 O5         -5.6870  -13.7815    3.7142 O.3       1 <0>        -0.5239
     41 O6         -6.9872  -12.0251    2.2979 O.3       1 <0>        -0.5371
     42 C24         3.5129   -0.3885    1.2669 C.3       1 <0>         0.1467
     43 N9          4.1903    0.8544    1.6534 N.am      1 <0>        -0.7237
     44 C25         3.4479    1.8968    1.2422 C.2       1 <0>         0.5621
     45 O7          3.7375    3.0652    1.4103 O.2       1 <0>        -0.5207
     46 H5         -0.6922    1.9011   -1.0759 H         1 <0>         0.1397
     47 H6          1.1410    3.1724   -0.0462 H         1 <0>         0.1359
     48 H7         -0.6537   -0.5565   -1.0718 H         1 <0>         0.1522
     49 H8          2.0769   -2.5583   -0.0963 H         1 <0>         0.4120
     50 H9          0.5829   -4.6954   -0.6939 H         1 <0>         0.1131
     51 H10         0.6763   -4.5695    1.0792 H         1 <0>         0.0714
     52 H11        -1.3872   -4.8344    2.4003 H         1 <0>         0.0381
     53 H12        -1.8014   -3.2714    1.6551 H         1 <0>         0.1091
     54 H13        -3.8096   -4.5334    2.5274 H         1 <0>         0.1007
     55 H14        -3.8939   -4.1902    0.7793 H         1 <0>         0.0856
     56 H15        -2.7832   -7.8124    0.1230 H         1 <0>         0.0999
     57 H16        -3.2166   -6.3539   -0.8072 H         1 <0>         0.0829
     58 H17        -0.7773   -6.5429   -0.7437 H         1 <0>         0.0944
     59 H18        -0.8018   -6.7043    1.0293 H         1 <0>         0.0446
     60 H19        -4.6515   -9.0487    3.6938 H         1 <0>         0.0807
     61 H20        -6.0861   -8.7560    2.6817 H         1 <0>         0.0930
     62 H21        -1.6783  -11.1653    4.0351 H         1 <0>         0.2220
     63 H22        -2.6350  -17.5384    3.1097 H         1 <0>         0.2057
     64 H23         1.2073  -14.7751    5.4464 H         1 <0>         0.4188
     65 H24         1.1958  -16.4512    5.3323 H         1 <0>         0.4112
     66 H25        -6.4938  -13.8089    4.2466 H         1 <0>         0.3836
     67 H26        -7.6073  -12.5721    2.7993 H         1 <0>         0.3895
     68 H27         3.2721   -0.9752    2.1534 H         1 <0>         0.0952
     69 H28         4.1466   -0.9672    0.5949 H         1 <0>         0.0948
     70 H29         5.0345    0.9140    2.1274 H         1 <0>         0.4271
@<TRIPOS>BOND
     1    1    6 ar
     2    1    2 ar
     3    1   46 1
     4    2    3 ar
     5    2   47 1
     6    3   44 1
     7    3    4 ar
     8    4    5 ar
     9    4   42 1
    10    5    6 ar
    11    5    7 1
    12    6   48 1
    13    7    8 am
    14    7   49 1
    15    8    9 2
    16    8   10 1
    17   10   11 1
    18   10   50 1
    19   10   51 1
    20   11   16 1
    21   11   12 1
    22   12   13 1
    23   12   52 1
    24   12   53 1
    25   13   14 1
    26   13   54 1
    27   13   55 1
    28   14   15 1
    29   14   17 am
    30   15   16 1
    31   15   56 1
    32   15   57 1
    33   16   58 1
    34   16   59 1
    35   17   18 2
    36   17   19 1
    37   19   20 1
    38   20   21 1
    39   20   60 1
    40   20   61 1
    41   21   22 1
    42   21   29 1
    43   21   23 1
    44   23   24 1
    45   23   25 1
    46   23   41 1
    47   25   26 1
    48   25   27 1
    49   25   40 1
    50   27   28 1
    51   27   29 1
    52   27   30 1
    53   30   34 1
    54   30   31 1
    55   31   32 2
    56   31   62 1
    57   32   33 1
    58   33   38 ar
    59   33   34 ar
    60   34   35 ar
    61   35   36 ar
    62   36   37 ar
    63   36   63 1
    64   37   38 ar
    65   38   39 1
    66   39   64 1
    67   39   65 1
    68   40   66 1
    69   41   67 1
    70   42   43 1
    71   42   68 1
    72   42   69 1
    73   43   44 am
    74   43   70 1
    75   44   45 2
@<TRIPOS>MOLECULE
CHEMBL594975
   58    62     0     0     0
SMALL
USER_CHARGES

@<TRIPOS>ATOM
      1 C1          0.2423    1.3790   -0.7971 C.ar      1 <0>        -0.1213
      2 C2          1.3239    2.1148   -0.3546 C.ar      1 <0>        -0.0765
      3 C3          2.3296    1.5015    0.3957 C.ar      1 <0>        -0.1473
      4 C4          2.2397    0.1443    0.6979 C.ar      1 <0>        -0.0124
      5 C5          1.1458   -0.5919    0.2488 C.ar      1 <0>        -0.1230
      6 C6          0.1471    0.0339   -0.5012 C.ar      1 <0>        -0.0635
      7 C7          1.0425   -2.0327    0.5644 C.2       1 <0>         0.5634
      8 O1          2.0039   -2.7597    0.4075 O.2       1 <0>        -0.5123
      9 N1         -0.1177   -2.5399    1.0262 N.am      1 <0>        -0.5968
     10 C8         -1.3237   -1.7120    1.1271 C.3       1 <0>         0.0909
     11 C9         -1.8364   -1.6808    2.5551 C.3       1 <0>        -0.0930
     12 C10        -1.5618   -2.9386    3.3254 C.ar      1 <0>        -0.0789
     13 C11        -2.1261   -3.0544    4.5945 C.ar      1 <0>        -0.0940
     14 C12        -1.9195   -4.1802    5.3648 C.ar      1 <0>        -0.1188
     15 C13        -1.1344   -5.2122    4.8905 C.ar      1 <0>        -0.0537
     16 C14        -0.5572   -5.1041    3.6290 C.ar      1 <0>        -0.1221
     17 C15        -0.7991   -3.9729    2.8408 C.ar      1 <0>        -0.0673
     18 C16        -0.2239   -3.9441    1.4416 C.3       1 <0>         0.1707
     19 C17         1.1541   -4.5992    1.4285 C.3       1 <0>         0.1226
     20 N2          1.0799   -5.9429    2.0045 N.am      1 <0>        -0.7307
     21 C18         0.3094   -6.1769    3.0968 C.2       1 <0>         0.5582
     22 O2          0.3232   -7.2704    3.6274 O.2       1 <0>        -0.5243
     23 C19         3.4875    2.2907    0.8679 C.2       1 <0>         0.5623
     24 O3          4.6035    1.8100    0.8376 O.2       1 <0>        -0.5010
     25 N3          3.3054    3.5429    1.3318 N.am      1 <0>        -0.6235
     26 C20         1.9532    4.1340    1.2740 C.3       1 <0>         0.0768
     27 C21         1.6335    4.9122    2.5632 C.3       1 <0>        -0.1602
     28 C22         2.1687    4.1514    3.7562 C.3       1 <0>        -0.0095
     29 N4          3.5075    4.6401    4.0787 N.4       1 <0>        -0.4878
     30 C23         4.5587    3.9961    3.3891 C.3       1 <0>        -0.0462
     31 C24         4.4417    4.2585    1.8747 C.3       1 <0>         0.0941
     32 H1         -0.5348    1.8590   -1.3734 H         1 <0>         0.1453
     33 H2          1.3923    3.1667   -0.5895 H         1 <0>         0.1407
     34 H3          3.0150   -0.3348    1.2775 H         1 <0>         0.1413
     35 H4         -0.7016   -0.5358   -0.8500 H         1 <0>         0.1449
     36 H5         -1.0897   -0.6965    0.8075 H         1 <0>         0.1050
     37 H6         -2.0964   -2.1229    0.4773 H         1 <0>         0.0842
     38 H7         -1.3675   -0.8453    3.0749 H         1 <0>         0.0800
     39 H8         -2.9133   -1.5135    2.5346 H         1 <0>         0.0948
     40 H9         -2.7349   -2.2503    4.9809 H         1 <0>         0.1295
     41 H10        -2.3736   -4.2546    6.3419 H         1 <0>         0.1358
     42 H11        -0.9699   -6.0938    5.4923 H         1 <0>         0.1421
     43 H12        -0.8885   -4.4759    0.7607 H         1 <0>         0.1027
     44 H13         1.5127   -4.6658    0.4014 H         1 <0>         0.1139
     45 H14         1.8474   -3.9938    2.0124 H         1 <0>         0.0799
     46 H15         1.5912   -6.6650    1.6070 H         1 <0>         0.4124
     47 H16         1.8957    4.8126    0.4229 H         1 <0>         0.0929
     48 H17         1.2200    3.3378    1.1456 H         1 <0>         0.1167
     49 H18         2.1014    5.8957    2.5196 H         1 <0>         0.0931
     50 H19         0.5539    5.0272    2.6601 H         1 <0>         0.1277
     51 H20         1.5097    4.3044    4.6108 H         1 <0>         0.1409
     52 H21         2.2167    3.0888    3.5184 H         1 <0>         0.1298
     53 H22         3.5457    5.6262    3.8682 H         1 <0>         0.4235
     54 H23         5.5140    4.3770    3.7501 H         1 <0>         0.1503
     55 H24         4.5075    2.9230    3.5738 H         1 <0>         0.1321
     56 H25         5.3527    3.9197    1.3813 H         1 <0>         0.1312
     57 H26         4.3132    5.3270    1.7019 H         1 <0>         0.1033
     58 H27         3.6585    4.5240    5.0696 H         1 <0>         0.4309
@<TRIPOS>BOND
     1    1    6 ar
     2    1    2 ar
     3    1   32 1
     4    2    3 ar
     5    2   33 1
     6    3    4 ar
     7    3   23 1
     8    4    5 ar
     9    4   34 1
    10    5    6 ar
    11    5    7 1
    12    6   35 1
    13    7    8 2
    14    7    9 am
    15    9   18 1
    16    9   10 1
    17   10   11 1
    18   10   36 1
    19   10   37 1
    20   11   12 1
    21   11   38 1
    22   11   39 1
    23   12   17 ar
    24   12   13 ar
    25   13   14 ar
    26   13   40 1
    27   14   15 ar
    28   14   41 1
    29   15   16 ar
    30   15   42 1
    31   16   21 1
    32   16   17 ar
    33   17   18 1
    34   18   19 1
    35   18   43 1
    36   19   20 1
    37   19   44 1
    38   19   45 1
    39   20   21 am
    40   20   46 1
    41   21   22 2
    42   23   24 2
    43   23   25 am
    44   25   31 1
    45   25   26 1
    46   26   27 1
    47   26   47 1
    48   26   48 1
    49   27   28 1
    50   27   49 1
    51   27   50 1
    52   28   29 1
    53   28   51 1
    54   28   52 1
    55   29   30 1
    56   29   53 1
    57   29   58 1
    58   30   31 1
    59   30   54 1
    60   30   55 1
    61   31   56 1
    62   31   57 1
@<TRIPOS>MOLECULE
CHEMBL594975__1
   58    62     0     0     0
SMALL
USER_CHARGES

@<TRIPOS>ATOM
      1 C1          0.3157    1.5119   -0.4671 C.ar      1 <0>        -0.1234
      2 C2          1.5648    2.0812   -0.6184 C.ar      1 <0>        -0.0758
      3 C3          2.7125    1.2923   -0.5140 C.ar      1 <0>        -0.1495
      4 C4          2.5953   -0.0720   -0.2562 C.ar      1 <0>        -0.0095
      5 C5          1.3324   -0.6397   -0.1041 C.ar      1 <0>        -0.1265
      6 C6          0.1925    0.1608   -0.2115 C.ar      1 <0>        -0.0589
      7 C7          1.1985   -2.0867    0.1692 C.2       1 <0>         0.5657
      8 O1          1.9434   -2.6265    0.9637 O.2       1 <0>        -0.5199
      9 N1          0.2506   -2.8070   -0.4625 N.am      1 <0>        -0.5951
     10 C8         -0.5789   -2.2149   -1.5168 C.3       1 <0>         0.0977
     11 C9         -0.4327   -2.9888   -2.8141 C.3       1 <0>        -0.0972
     12 C10        -0.1626   -4.4517   -2.6201 C.ar      1 <0>        -0.0764
     13 C11        -0.1615   -5.2636   -3.7529 C.ar      1 <0>        -0.0928
     14 C12         0.0793   -6.6187   -3.6567 C.ar      1 <0>        -0.1173
     15 C13         0.3366   -7.1931   -2.4278 C.ar      1 <0>        -0.0540
     16 C14         0.3483   -6.3914   -1.2905 C.ar      1 <0>        -0.1257
     17 C15         0.0703   -5.0233   -1.3931 C.ar      1 <0>        -0.0714
     18 C16         0.0132   -4.2162   -0.1256 C.3       1 <0>         0.1711
     19 C17         1.0779   -4.7071    0.8510 C.3       1 <0>         0.1227
     20 N2          0.9484   -6.1508    1.0551 N.am      1 <0>        -0.7240
     21 C18         0.6440   -6.9652    0.0393 C.2       1 <0>         0.5597
     22 O2          0.6233   -8.1695    0.2030 O.2       1 <0>        -0.5303
     23 C19         4.0490    1.9033   -0.6773 C.2       1 <0>         0.5633
     24 O3          4.9216    1.3053   -1.2760 O.2       1 <0>        -0.5035
     25 N3          4.2997    3.1233   -0.1624 N.am      1 <0>        -0.6230
     26 C20         3.1986    3.8611    0.4892 C.3       1 <0>         0.0759
     27 C21         3.6822    4.5556    1.7751 C.3       1 <0>        -0.1601
     28 C22         4.6347    3.6413    2.5133 C.3       1 <0>        -0.0099
     29 N4          6.0063    3.9515    2.1162 N.4       1 <0>        -0.4876
     30 C23         6.4670    3.2585    0.9748 C.3       1 <0>        -0.0463
     31 C24         5.6407    3.6614   -0.2625 C.3       1 <0>         0.0944
     32 H1         -0.5685    2.1272   -0.5446 H         1 <0>         0.1450
     33 H2          1.6543    3.1388   -0.8183 H         1 <0>         0.1413
     34 H3          3.4796   -0.6866   -0.1749 H         1 <0>         0.1422
     35 H4         -0.7872   -0.2781   -0.0938 H         1 <0>         0.1432
     36 H5         -1.6230   -2.2324   -1.2042 H         1 <0>         0.0835
     37 H6         -0.2706   -1.1820   -1.6784 H         1 <0>         0.1009
     38 H7         -1.3512   -2.8781   -3.3905 H         1 <0>         0.0962
     39 H8          0.3879   -2.5564   -3.3865 H         1 <0>         0.0845
     40 H9         -0.3525   -4.8251   -4.7213 H         1 <0>         0.1307
     41 H10         0.0662   -7.2321   -4.5454 H         1 <0>         0.1362
     42 H11         0.5263   -8.2535   -2.3500 H         1 <0>         0.1417
     43 H12        -0.9735   -4.3214    0.3253 H         1 <0>         0.1014
     44 H13         2.0665   -4.4864    0.4485 H         1 <0>         0.0921
     45 H14         0.9563   -4.1950    1.8054 H         1 <0>         0.1048
     46 H15         1.0749   -6.5240    1.9415 H         1 <0>         0.4101
     47 H16         2.8143    4.6126   -0.2005 H         1 <0>         0.0931
     48 H17         2.3990    3.1635    0.7384 H         1 <0>         0.1174
     49 H18         4.1947    5.4823    1.5170 H         1 <0>         0.0929
     50 H19         2.8260    4.7788    2.4117 H         1 <0>         0.1278
     51 H20         4.5241    3.7910    3.5873 H         1 <0>         0.1414
     52 H21         4.4097    2.6041    2.2648 H         1 <0>         0.1306
     53 H22         6.0686    4.9420    1.9340 H         1 <0>         0.4231
     54 H23         7.5160    3.5006    0.8044 H         1 <0>         0.1501
     55 H24         6.3687    2.1855    1.1398 H         1 <0>         0.1326
     56 H25         6.1226    3.2691   -1.1581 H         1 <0>         0.1310
     57 H26         5.5912    4.7484   -0.3257 H         1 <0>         0.1032
     58 H27         6.6181    3.7348    2.8887 H         1 <0>         0.4311
@<TRIPOS>BOND
     1    1    6 ar
     2    1    2 ar
     3    1   32 1
     4    2    3 ar
     5    2   33 1
     6    3    4 ar
     7    3   23 1
     8    4    5 ar
     9    4   34 1
    10    5    6 ar
    11    5    7 1
    12    6   35 1
    13    7    8 2
    14    7    9 am
    15    9   18 1
    16    9   10 1
    17   10   11 1
    18   10   36 1
    19   10   37 1
    20   11   12 1
    21   11   38 1
    22   11   39 1
    23   12   17 ar
    24   12   13 ar
    25   13   14 ar
    26   13   40 1
    27   14   15 ar
    28   14   41 1
    29   15   16 ar
    30   15   42 1
    31   16   21 1
    32   16   17 ar
    33   17   18 1
    34   18   19 1
    35   18   43 1
    36   19   20 1
    37   19   44 1
    38   19   45 1
    39   20   21 am
    40   20   46 1
    41   21   22 2
    42   23   24 2
    43   23   25 am
    44   25   31 1
    45   25   26 1
    46   26   27 1
    47   26   47 1
    48   26   48 1
    49   27   28 1
    50   27   49 1
    51   27   50 1
    52   28   29 1
    53   28   51 1
    54   28   52 1
    55   29   30 1
    56   29   53 1
    57   29   58 1
    58   30   31 1
    59   30   54 1
    60   30   55 1
    61   31   56 1
    62   31   57 1
@<TRIPOS>MOLECULE
CHEMBL592910
   58    62     0     0     0
SMALL
USER_CHARGES

@<TRIPOS>ATOM
      1 C1          6.2972   -5.3898   -1.6901 C.ar      1 <0>        -0.1183
      2 C2          7.1378   -4.7301   -0.8166 C.ar      1 <0>        -0.0940
      3 C3          6.6445   -3.7824    0.0776 C.ar      1 <0>        -0.0797
      4 C4          5.2985   -3.5068    0.0788 C.ar      1 <0>        -0.0675
      5 C5          4.4443   -4.1497   -0.8230 C.ar      1 <0>        -0.1230
      6 C6          4.9464   -5.1069   -1.7016 C.ar      1 <0>        -0.0536
      7 C7          3.0156   -3.7714   -0.8575 C.2       1 <0>         0.5586
      8 O1          2.2114   -4.4738   -1.4384 O.2       1 <0>        -0.5272
      9 N1          2.6099   -2.6447   -0.2413 N.am      1 <0>        -0.7272
     10 C8          3.5825   -1.7308    0.3592 C.3       1 <0>         0.1212
     11 C9          4.6946   -2.5187    1.0455 C.3       1 <0>         0.1711
     12 N2          5.7549   -1.6059    1.4906 N.am      1 <0>        -0.5967
     13 C10         6.9836   -2.2037    2.0226 C.3       1 <0>         0.0876
     14 C11         7.6278   -3.1121    0.9913 C.3       1 <0>        -0.0939
     15 C12         5.6047   -0.2688    1.4128 C.2       1 <0>         0.5598
     16 O2          4.6225    0.2020    0.8738 O.2       1 <0>        -0.5114
     17 C13         6.6362    0.6264    1.9839 C.ar      1 <0>        -0.0957
     18 C14         6.9079    1.8538    1.3779 C.ar      1 <0>        -0.0604
     19 C15         7.8685    2.6870    1.9093 C.ar      1 <0>        -0.0684
     20 C16         8.5691    2.3035    3.0537 C.ar      1 <0>        -0.1208
     21 C17         8.2971    1.0763    3.6600 C.ar      1 <0>        -0.1003
     22 C18         7.3328    0.2454    3.1316 C.ar      1 <0>        -0.0995
     23 C19         9.6013    3.1983    3.6242 C.2       1 <0>         0.5607
     24 O3          9.3703    4.3837    3.7596 O.2       1 <0>        -0.5007
     25 N3         10.7972    2.6983    3.9934 N.am      1 <0>        -0.6231
     26 C20        11.0190    1.2411    3.9005 C.3       1 <0>         0.0809
     27 C21        12.4221    0.9287    3.3496 C.3       1 <0>        -0.1601
     28 C22        12.7563    1.9028    2.2416 C.3       1 <0>        -0.0097
     29 N4         13.4904    3.0357    2.8006 N.4       1 <0>        -0.4880
     30 C23        12.6826    4.0917    3.2779 C.3       1 <0>        -0.0458
     31 C24        11.8207    3.6099    4.4615 C.3       1 <0>         0.0936
     32 H1          6.6986   -6.1267   -2.3700 H         1 <0>         0.1357
     33 H2          8.1946   -4.9522   -0.8262 H         1 <0>         0.1292
     34 H3          4.2864   -5.6215   -2.3841 H         1 <0>         0.1423
     35 H4          1.6636   -2.4367   -0.1954 H         1 <0>         0.4116
     36 H5          4.0138   -1.1007   -0.4187 H         1 <0>         0.0916
     37 H6          3.0804   -1.1009    1.0935 H         1 <0>         0.1062
     38 H7          4.2863   -3.0522    1.9039 H         1 <0>         0.1014
     39 H8          7.6824   -1.4108    2.2892 H         1 <0>         0.1085
     40 H9          6.7439   -2.7846    2.9132 H         1 <0>         0.0829
     41 H10         8.1985   -3.8806    1.5126 H         1 <0>         0.0938
     42 H11         8.3164   -2.5205    0.3880 H         1 <0>         0.0816
     43 H12         6.3657    2.1505    0.4922 H         1 <0>         0.1472
     44 H13         8.0793    3.6365    1.4399 H         1 <0>         0.1408
     45 H14         8.8395    0.7794    4.5454 H         1 <0>         0.1400
     46 H15         7.1194   -0.7025    3.6031 H         1 <0>         0.1497
     47 H16        10.9176    0.7999    4.8921 H         1 <0>         0.0925
     48 H17        10.2699    0.8068    3.2385 H         1 <0>         0.1132
     49 H18        13.1561    1.0229    4.1499 H         1 <0>         0.0931
     50 H19        12.4405   -0.0882    2.9573 H         1 <0>         0.1278
     51 H20        13.3714    1.4046    1.4922 H         1 <0>         0.1411
     52 H21        11.8353    2.2582    1.7795 H         1 <0>         0.1302
     53 H22        14.0600    2.7009    3.5632 H         1 <0>         0.4234
     54 H23        13.3191    4.9141    3.6043 H         1 <0>         0.1502
     55 H24        12.0312    4.4389    2.4758 H         1 <0>         0.1323
     56 H25        11.3497    4.4712    4.9353 H         1 <0>         0.1310
     57 H26        12.4552    3.1007    5.1869 H         1 <0>         0.1034
     58 H27        14.1033    3.4012    2.0872 H         1 <0>         0.4311
@<TRIPOS>BOND
     1    1    6 ar
     2    1    2 ar
     3    1   32 1
     4    2    3 ar
     5    2   33 1
     6    3   14 1
     7    3    4 ar
     8    4   11 1
     9    4    5 ar
    10    5    6 ar
    11    5    7 1
    12    6   34 1
    13    7    8 2
    14    7    9 am
    15    9   10 1
    16    9   35 1
    17   10   11 1
    18   10   36 1
    19   10   37 1
    20   11   12 1
    21   11   38 1
    22   12   13 1
    23   12   15 am
    24   13   14 1
    25   13   39 1
    26   13   40 1
    27   14   41 1
    28   14   42 1
    29   15   16 2
    30   15   17 1
    31   17   22 ar
    32   17   18 ar
    33   18   19 ar
    34   18   43 1
    35   19   20 ar
    36   19   44 1
    37   20   21 ar
    38   20   23 1
    39   21   22 ar
    40   21   45 1
    41   22   46 1
    42   23   24 2
    43   23   25 am
    44   25   31 1
    45   25   26 1
    46   26   27 1
    47   26   47 1
    48   26   48 1
    49   27   28 1
    50   27   49 1
    51   27   50 1
    52   28   29 1
    53   28   51 1
    54   28   52 1
    55   29   30 1
    56   29   53 1
    57   29   58 1
    58   30   31 1
    59   30   54 1
    60   30   55 1
    61   31   56 1
    62   31   57 1
@<TRIPOS>MOLECULE
CHEMBL592910__1
   58    62     0     0     0
SMALL
USER_CHARGES

@<TRIPOS>ATOM
      1 C1          0.1595   -1.1600   -3.7191 C.ar      1 <0>        -0.1183
      2 C2          0.9966   -0.0629   -3.7352 C.ar      1 <0>        -0.0940
      3 C3          2.0515    0.0493   -2.8320 C.ar      1 <0>        -0.0790
      4 C4          2.2531   -0.9557   -1.9172 C.ar      1 <0>        -0.0675
      5 C5          1.4273   -2.0845   -1.9132 C.ar      1 <0>        -0.1230
      6 C6          0.3660   -2.1783   -2.8106 C.ar      1 <0>        -0.0537
      7 C7          1.7200   -3.1886   -0.9748 C.2       1 <0>         0.5582
      8 O1          0.8912   -4.0544   -0.7724 O.2       1 <0>        -0.5267
      9 N1          2.9100   -3.2302   -0.3457 N.am      1 <0>        -0.7267
     10 C8          3.9595   -2.2629   -0.6694 C.3       1 <0>         0.1216
     11 C9          3.3540   -0.8795   -0.8887 C.3       1 <0>         0.1706
     12 N2          4.3814    0.0449   -1.3842 N.am      1 <0>        -0.5957
     13 C10         3.9439    1.3779   -1.8104 C.3       1 <0>         0.0909
     14 C11         2.9130    1.2745   -2.9196 C.3       1 <0>        -0.0930
     15 C12         5.6780   -0.3179   -1.4445 C.2       1 <0>         0.5607
     16 O2          6.0285   -1.3955   -1.0055 O.2       1 <0>        -0.5111
     17 C13         6.6752    0.5962   -2.0456 C.ar      1 <0>        -0.0910
     18 C14         6.6942    1.9438   -1.6832 C.ar      1 <0>        -0.0948
     19 C15         7.6223    2.7949   -2.2432 C.ar      1 <0>        -0.0685
     20 C16         8.5434    2.3092   -3.1722 C.ar      1 <0>        -0.1236
     21 C17         8.5247    0.9615   -3.5343 C.ar      1 <0>        -0.0943
     22 C18         7.6000    0.1093   -2.9704 C.ar      1 <0>        -0.0682
     23 C19         9.5400    3.2235   -3.7741 C.2       1 <0>         0.5613
     24 O3         10.1627    3.9928   -3.0688 O.2       1 <0>        -0.5019
     25 N3          9.7568    3.2029   -5.1041 N.am      1 <0>        -0.6228
     26 C20         9.0430    2.2050   -5.9264 C.3       1 <0>         0.0811
     27 C21         8.5446    2.8273   -7.2434 C.3       1 <0>        -0.1602
     28 C22         8.0262    4.2230   -6.9762 C.3       1 <0>        -0.0090
     29 N4          9.0990    5.1881   -7.2057 N.4       1 <0>        -0.4881
     30 C23         9.9202    5.4433   -6.0850 C.3       1 <0>        -0.0454
     31 C24        10.6768    4.1639   -5.6767 C.3       1 <0>         0.0934
     32 H1         -0.6627   -1.2199   -4.4168 H         1 <0>         0.1357
     33 H2          0.8315    0.7209   -4.4596 H         1 <0>         0.1290
     34 H3         -0.2874   -3.0380   -2.7958 H         1 <0>         0.1424
     35 H4          3.0731   -3.9079    0.3288 H         1 <0>         0.4122
     36 H5          4.6746   -2.2179    0.1520 H         1 <0>         0.1145
     37 H6          4.4747   -2.5793   -1.5764 H         1 <0>         0.0812
     38 H7          2.9485   -0.5064    0.0518 H         1 <0>         0.1021
     39 H8          3.5056    1.9009   -0.9604 H         1 <0>         0.0835
     40 H9          4.8050    1.9400   -2.1718 H         1 <0>         0.1048
     41 H10         3.4323    1.2672   -3.8779 H         1 <0>         0.0806
     42 H11         2.2713    2.1548   -2.8815 H         1 <0>         0.0936
     43 H12         5.9814    2.3197   -0.9642 H         1 <0>         0.1460
     44 H13         7.6366    3.8379   -1.9633 H         1 <0>         0.1405
     45 H14         9.2373    0.5857   -4.2536 H         1 <0>         0.1397
     46 H15         7.5882   -0.9345   -3.2475 H         1 <0>         0.1443
     47 H16         9.7181    1.3799   -6.1535 H         1 <0>         0.0925
     48 H17         8.1897    1.8238   -5.3655 H         1 <0>         0.1128
     49 H18         9.3674    2.8756   -7.9567 H         1 <0>         0.0932
     50 H19         7.7426    2.2142   -7.6544 H         1 <0>         0.1277
     51 H20         7.1944    4.4370   -7.6473 H         1 <0>         0.1410
     52 H21         7.6879    4.2938   -5.9424 H         1 <0>         0.1302
     53 H22         9.6809    4.8450   -7.9552 H         1 <0>         0.4236
     54 H23        10.6381    6.2248   -6.3340 H         1 <0>         0.1501
     55 H24         9.3011    5.7770   -5.2522 H         1 <0>         0.1323
     56 H25        11.4393    4.4185   -4.9406 H         1 <0>         0.1310
     57 H26        11.1536    3.7300   -6.5555 H         1 <0>         0.1033
     58 H27         8.6853    6.0593   -7.5022 H         1 <0>         0.4309
@<TRIPOS>BOND
     1    1    6 ar
     2    1    2 ar
     3    1   32 1
     4    2    3 ar
     5    2   33 1
     6    3   14 1
     7    3    4 ar
     8    4   11 1
     9    4    5 ar
    10    5    6 ar
    11    5    7 1
    12    6   34 1
    13    7    8 2
    14    7    9 am
    15    9   10 1
    16    9   35 1
    17   10   11 1
    18   10   36 1
    19   10   37 1
    20   11   12 1
    21   11   38 1
    22   12   13 1
    23   12   15 am
    24   13   14 1
    25   13   39 1
    26   13   40 1
    27   14   41 1
    28   14   42 1
    29   15   16 2
    30   15   17 1
    31   17   22 ar
    32   17   18 ar
    33   18   19 ar
    34   18   43 1
    35   19   20 ar
    36   19   44 1
    37   20   21 ar
    38   20   23 1
    39   21   22 ar
    40   21   45 1
    41   22   46 1
    42   23   24 2
    43   23   25 am
    44   25   31 1
    45   25   26 1
    46   26   27 1
    47   26   47 1
    48   26   48 1
    49   27   28 1
    50   27   49 1
    51   27   50 1
    52   28   29 1
    53   28   51 1
    54   28   52 1
    55   29   30 1
    56   29   53 1
    57   29   58 1
    58   30   31 1
    59   30   54 1
    60   30   55 1
    61   31   56 1
    62   31   57 1
@<TRIPOS>MOLECULE
CHEMBL563236
   44    48     0     0     0
SMALL
USER_CHARGES

@<TRIPOS>ATOM
      1 C1         13.1957   -6.0445    0.6062 C.ar      1 <0>        -0.1514
      2 C2         13.1708   -4.6637    0.7407 C.ar      1 <0>        -0.0824
      3 C3         11.9935   -3.9625    0.5806 C.ar      1 <0>        -0.1471
      4 C4         10.8237   -4.6469    0.2816 C.ar      1 <0>         0.1890
      5 C5         10.8524   -6.0466    0.1454 C.ar      1 <0>        -0.1548
      6 C6         12.0537   -6.7368    0.3119 C.ar      1 <0>        -0.0334
      7 C7          9.5982   -6.7420   -0.1707 C.2       1 <0>         0.4765
      8 O1          9.5756   -8.0881   -0.3110 O.3       1 <0>        -0.6391
      9 N1          8.4993   -6.0386   -0.3147 N.2       1 <0>        -0.6087
     10 C8          8.4849   -4.6982   -0.1818 C.2       1 <0>         0.3704
     11 N2          9.6179   -3.9879    0.1121 N.pl3     1 <0>        -0.3425
     12 N3          9.2753   -2.6317    0.1822 N.2       1 <0>        -0.3420
     13 C9          7.9822   -2.5085   -0.0586 C.2       1 <0>         0.0525
     14 C10         7.4499   -3.7847   -0.2913 C.2       1 <0>        -0.2773
     15 C11         7.2242   -1.2398   -0.0778 C.2       1 <0>         0.6233
     16 O2          6.0134   -1.2568   -0.1851 O.2       1 <0>        -0.5027
     17 N4          7.8753   -0.0642    0.0237 N.am      1 <0>        -0.6229
     18 C12         7.1498    1.2114    0.1576 C.3       1 <0>         0.0925
     19 C13         7.6361    2.1378   -0.9557 C.3       1 <0>        -0.0216
     20 N5          9.0902    2.3397   -0.8756 N.4       1 <0>        -0.3889
     21 C14         9.4741    3.0643   -2.1216 C.3       1 <0>        -0.0044
     22 C15         9.7685    1.9864   -3.1841 C.3       1 <0>        -0.1447
     23 C16         9.6233    0.6347   -2.4393 C.3       1 <0>        -0.1371
     24 C17         9.8146    1.0584   -0.9707 C.3       1 <0>         0.0189
     25 H1         10.8745    1.2382   -0.7909 H         1 <0>         0.1442
     26 C18         9.3427    0.0067    0.0123 C.3       1 <0>         0.0764
     27 H2         14.1269   -6.5772    0.7307 H         1 <0>         0.1284
     28 H3         14.0820   -4.1326    0.9734 H         1 <0>         0.1277
     29 H4         11.9822   -2.8878    0.6875 H         1 <0>         0.1296
     30 H5         12.0814   -7.8115    0.2085 H         1 <0>         0.1432
     31 H6          6.4189   -4.0137   -0.5168 H         1 <0>         0.1537
     32 H7          6.0783    1.0401    0.0546 H         1 <0>         0.1352
     33 H8          7.3622    1.6575    1.1292 H         1 <0>         0.0929
     34 H9          7.3886    1.6973   -1.9216 H         1 <0>         0.1325
     35 H10         7.1353    3.1015   -0.8639 H         1 <0>         0.1384
     36 H11         8.6526    3.7000   -2.4521 H         1 <0>         0.1312
     37 H12        10.3649    3.6667   -1.9439 H         1 <0>         0.1302
     38 H13         9.0459    2.0497   -3.9977 H         1 <0>         0.1021
     39 H14        10.7824    2.1002   -3.5677 H         1 <0>         0.1051
     40 H15         8.6326    0.2082   -2.5958 H         1 <0>         0.0973
     41 H16        10.4003   -0.0650   -2.7471 H         1 <0>         0.1196
     42 H17         9.6977    0.2594    1.0114 H         1 <0>         0.0910
     43 H18         9.7467   -0.9635   -0.2769 H         1 <0>         0.1708
     44 H19         9.3466    2.8473   -0.0422 H         1 <0>         0.4286
@<TRIPOS>BOND
     1    1    6 ar
     2    1    2 ar
     3    1   27 1
     4    2    3 ar
     5    2   28 1
     6    3    4 ar
     7    3   29 1
     8    4   11 1
     9    4    5 ar
    10    5    6 ar
    11    5    7 1
    12    6   30 1
    13    7    8 1
    14    7    9 2
    15    9   10 1
    16   10   14 2
    17   10   11 1
    18   11   12 1
    19   12   13 2
    20   13   14 1
    21   13   15 1
    22   14   31 1
    23   15   16 2
    24   15   17 am
    25   17   26 1
    26   17   18 1
    27   18   19 1
    28   18   32 1
    29   18   33 1
    30   19   20 1
    31   19   34 1
    32   19   35 1
    33   20   24 1
    34   20   21 1
    35   20   44 1
    36   21   22 1
    37   21   36 1
    38   21   37 1
    39   22   23 1
    40   22   38 1
    41   22   39 1
    42   23   24 1
    43   23   40 1
    44   23   41 1
    45   24   25 1
    46   24   26 1
    47   26   42 1
    48   26   43 1
@<TRIPOS>MOLECULE
CHEMBL563236__1
   43    47     0     0     0
SMALL
USER_CHARGES

@<TRIPOS>ATOM
      1 C1         13.1948   -6.0447    0.6130 C.ar      1 <0>        -0.1577
      2 C2         13.1698   -4.6638    0.7473 C.ar      1 <0>        -0.0845
      3 C3         11.9927   -3.9626    0.5858 C.ar      1 <0>        -0.1451
      4 C4         10.8231   -4.6470    0.2857 C.ar      1 <0>         0.1951
      5 C5         10.8519   -6.0467    0.1498 C.ar      1 <0>        -0.1587
      6 C6         12.0530   -6.7370    0.3176 C.ar      1 <0>        -0.0366
      7 C7          9.5980   -6.7422   -0.1675 C.2       1 <0>         0.4748
      8 O1          9.5755   -8.0882   -0.3076 O.3       1 <0>        -0.6562
      9 N1          8.4993   -6.0387   -0.3128 N.2       1 <0>        -0.6112
     10 C8          8.4848   -4.6983   -0.1801 C.2       1 <0>         0.3600
     11 N2          9.6176   -3.9880    0.1149 N.pl3     1 <0>        -0.3499
     12 N3          9.2750   -2.6317    0.1846 N.2       1 <0>        -0.3213
     13 C9          7.9821   -2.5086   -0.0576 C.2       1 <0>         0.0659
     14 C10         7.4500   -3.7847   -0.2907 C.2       1 <0>        -0.2829
     15 C11         7.2242   -1.2398   -0.0778 C.2       1 <0>         0.6117
     16 O2          6.0135   -1.2567   -0.1859 O.2       1 <0>        -0.5292
     17 N4          7.8753   -0.0642    0.0237 N.am      1 <0>        -0.6052
     18 C12         7.1493    1.2109    0.1576 C.3       1 <0>         0.1141
     19 C13         7.6207    2.1313   -0.9672 C.3       1 <0>         0.0239
     20 N5          9.0779    2.3232   -0.9140 N.3       1 <0>        -0.4941
     21 C14         9.4732    3.0325   -2.1656 C.3       1 <0>         0.0267
     22 C15         9.7917    1.9419   -3.2078 C.3       1 <0>        -0.1503
     23 C16         9.6486    0.6002   -2.4447 C.3       1 <0>        -0.1502
     24 C17         9.8161    1.0477   -0.9803 C.3       1 <0>         0.0530
     25 H1         10.8718    1.2442   -0.7935 H         1 <0>         0.0941
     26 C18         9.3425    0.0060    0.0122 C.3       1 <0>         0.0980
     27 H2         14.1258   -6.5774    0.7386 H         1 <0>         0.1243
     28 H3         14.0808   -4.1328    0.9808 H         1 <0>         0.1259
     29 H4         11.9814   -2.8880    0.6927 H         1 <0>         0.1331
     30 H5         12.0808   -7.8117    0.2144 H         1 <0>         0.1395
     31 H6          6.4192   -4.0138   -0.5172 H         1 <0>         0.1513
     32 H7          6.0769    1.0370    0.0682 H         1 <0>         0.0978
     33 H8          7.3721    1.6637    1.1238 H         1 <0>         0.0767
     34 H9          7.3524    1.6901   -1.9271 H         1 <0>         0.0439
     35 H10         7.1282    3.0987   -0.8684 H         1 <0>         0.0855
     36 H11         8.6511    3.6561   -2.5170 H         1 <0>         0.0702
     37 H12        10.3563    3.6453   -1.9846 H         1 <0>         0.0804
     38 H13         9.0796    1.9864   -4.0319 H         1 <0>         0.0651
     39 H14        10.8096    2.0592   -3.5794 H         1 <0>         0.0703
     40 H15         8.6639    0.1622   -2.6081 H         1 <0>         0.0690
     41 H16        10.4359   -0.0970   -2.7315 H         1 <0>         0.0764
     42 H17         9.6971    0.2681    1.0090 H         1 <0>         0.0704
     43 H18         9.7462   -0.9672   -0.2672 H         1 <0>         0.1362
@<TRIPOS>BOND
     1    1    6 ar
     2    1    2 ar
     3    1   27 1
     4    2    3 ar
     5    2   28 1
     6    3    4 ar
     7    3   29 1
     8    4   11 1
     9    4    5 ar
    10    5    6 ar
    11    5    7 1
    12    6   30 1
    13    7    8 1
    14    7    9 2
    15    9   10 1
    16   10   14 2
    17   10   11 1
    18   11   12 1
    19   12   13 2
    20   13   14 1
    21   13   15 1
    22   14   31 1
    23   15   16 2
    24   15   17 am
    25   17   26 1
    26   17   18 1
    27   18   19 1
    28   18   32 1
    29   18   33 1
    30   19   20 1
    31   19   34 1
    32   19   35 1
    33   20   24 1
    34   20   21 1
    35   21   22 1
    36   21   36 1
    37   21   37 1
    38   22   23 1
    39   22   38 1
    40   22   39 1
    41   23   24 1
    42   23   40 1
    43   23   41 1
    44   24   25 1
    45   24   26 1
    46   26   42 1
    47   26   43 1
@<TRIPOS>MOLECULE
CHEMBL494721
   61    65     0     0     0
SMALL
USER_CHARGES

@<TRIPOS>ATOM
      1 C1         -2.7523   -0.6815   -1.6166 C.ar      1 <0>        -0.0871
      2 C2         -2.0764    0.4702   -1.2343 C.ar      1 <0>        -0.1093
      3 C3         -0.8785    0.3911   -0.5586 C.ar      1 <0>        -0.0547
      4 C4         -0.3440   -0.8610   -0.2576 C.ar      1 <0>        -0.1241
      5 C5         -1.0352   -2.0307   -0.6480 C.ar      1 <0>        -0.0613
      6 C6         -2.2471   -1.9194   -1.3321 C.ar      1 <0>        -0.0973
      7 C7         -0.4506   -3.3310   -0.3193 C.2       1 <0>         0.1405
      8 N1          0.6802   -3.3929    0.3185 N.2       1 <0>        -0.2248
      9 N2          1.3843   -2.2560    0.7163 N.am      1 <0>        -0.5336
     10 H1          2.2240   -2.3625    1.1900 H         1 <0>         0.4364
     11 C8          0.9281   -1.0123    0.4595 C.2       1 <0>         0.5292
     12 O1          1.5599   -0.0337    0.8158 O.2       1 <0>        -0.5184
     13 C9         -1.1599   -4.5988   -0.7200 C.3       1 <0>        -0.0184
     14 C10        -0.3548   -5.7895   -0.2670 C.ar      1 <0>        -0.0862
     15 C11         0.6072   -6.3304   -1.1031 C.ar      1 <0>        -0.0530
     16 C12         1.3509   -7.4222   -0.6971 C.ar      1 <0>        -0.1494
     17 C13         1.1381   -7.9819    0.5499 C.ar      1 <0>         0.1448
     18 C14         0.1682   -7.4394    1.3983 C.ar      1 <0>        -0.1596
     19 C15        -0.5747   -6.3329    0.9806 C.ar      1 <0>        -0.0501
     20 C16        -0.0663   -8.0305    2.7313 C.2       1 <0>         0.5690
     21 O2         -0.4787   -9.1701    2.8269 O.2       1 <0>        -0.5172
     22 N3          0.1768   -7.3065    3.8418 N.am      1 <0>        -0.6036
     23 C17         0.5757   -5.8955    3.7423 C.3       1 <0>         0.0845
     24 C18        -0.3984   -5.0511    4.5732 C.3       1 <0>         0.1225
     25 N4         -0.5279   -5.6582    5.9052 N.am      1 <0>        -0.6356
     26 C19        -0.9268   -7.0692    6.0047 C.3       1 <0>         0.0667
     27 C20         0.0418   -7.9121    5.1740 C.3       1 <0>         0.0909
     28 C21        -0.2848   -4.9342    7.0157 C.2       1 <0>         0.7180
     29 O3         -0.3959   -3.7237    6.9886 O.2       1 <0>        -0.5750
     30 N5          0.0815   -5.5520    8.1562 N.am      1 <0>        -0.6295
     31 C22         0.4405   -6.9790    8.1631 C.3       1 <0>         0.0439
     32 C23         1.7886   -7.1350    8.8761 C.3       1 <0>         0.0466
     33 O4          1.7244   -6.4903   10.1504 O.3       1 <0>        -0.3774
     34 C24         1.4977   -5.0804   10.0824 C.3       1 <0>         0.0477
     35 C25         0.1402   -4.8179    9.4301 C.3       1 <0>         0.0928
     36 F1          1.8648   -9.0496    0.9464 F         1 <0>        -0.1267
     37 H2         -3.6921   -0.5978   -2.1420 H         1 <0>         0.1367
     38 H3         -2.4942    1.4379   -1.4696 H         1 <0>         0.1376
     39 H4         -0.3580    1.2907   -0.2650 H         1 <0>         0.1436
     40 H5         -2.7826   -2.8069   -1.6354 H         1 <0>         0.1419
     41 H6         -2.1446   -4.6272   -0.2535 H         1 <0>         0.1100
     42 H7         -1.2705   -4.6261   -1.8041 H         1 <0>         0.1121
     43 H8          0.7772   -5.8970   -2.0776 H         1 <0>         0.1385
     44 H9          2.0991   -7.8394   -1.3547 H         1 <0>         0.1447
     45 H10        -1.3230   -5.9065    1.6323 H         1 <0>         0.1358
     46 H11         1.5875   -5.7732    4.1289 H         1 <0>         0.0768
     47 H12         0.5387   -5.5774    2.7004 H         1 <0>         0.1081
     48 H13        -0.0123   -4.0363    4.6697 H         1 <0>         0.1025
     49 H14        -1.3725   -5.0296    4.0846 H         1 <0>         0.0720
     50 H15        -0.8897   -7.3873    7.0466 H         1 <0>         0.1212
     51 H16        -1.9386   -7.1915    5.6181 H         1 <0>         0.0777
     52 H17        -0.3477   -8.9255    5.0774 H         1 <0>         0.1120
     53 H18         1.0147   -7.9367    5.6649 H         1 <0>         0.0776
     54 H19        -0.3234   -7.5472    8.6938 H         1 <0>         0.0830
     55 H20         0.5230   -7.3418    7.1385 H         1 <0>         0.1157
     56 H21         2.0070   -8.1939    9.0143 H         1 <0>         0.1086
     57 H22         2.5736   -6.6761    8.2750 H         1 <0>         0.0561
     58 H23         1.5068   -4.6612   11.0885 H         1 <0>         0.1100
     59 H24         2.2817   -4.6140    9.4857 H         1 <0>         0.0570
     60 H25         0.0239   -3.7501    9.2443 H         1 <0>         0.1044
     61 H26        -0.6545   -5.1647   10.0907 H         1 <0>         0.0754
@<TRIPOS>BOND
     1    1    6 ar
     2    1    2 ar
     3    1   37 1
     4    2    3 ar
     5    2   38 1
     6    3    4 ar
     7    3   39 1
     8    4   11 1
     9    4    5 ar
    10    5    6 ar
    11    5    7 1
    12    6   40 1
    13    7    8 2
    14    7   13 1
    15    8    9 1
    16    9   10 1
    17    9   11 am
    18   11   12 2
    19   13   14 1
    20   13   41 1
    21   13   42 1
    22   14   19 ar
    23   14   15 ar
    24   15   16 ar
    25   15   43 1
    26   16   17 ar
    27   16   44 1
    28   17   18 ar
    29   17   36 1
    30   18   19 ar
    31   18   20 1
    32   19   45 1
    33   20   21 2
    34   20   22 am
    35   22   27 1
    36   22   23 1
    37   23   24 1
    38   23   46 1
    39   23   47 1
    40   24   25 1
    41   24   48 1
    42   24   49 1
    43   25   26 1
    44   25   28 am
    45   26   27 1
    46   26   50 1
    47   26   51 1
    48   27   52 1
    49   27   53 1
    50   28   29 2
    51   28   30 am
    52   30   35 1
    53   30   31 1
    54   31   32 1
    55   31   54 1
    56   31   55 1
    57   32   33 1
    58   32   56 1
    59   32   57 1
    60   33   34 1
    61   34   35 1
    62   34   58 1
    63   34   59 1
    64   35   60 1
    65   35   61 1
@<TRIPOS>MOLECULE
CHEMBL594976
   41    44     0     0     0
SMALL
USER_CHARGES

@<TRIPOS>ATOM
      1 C1         -0.0166    1.3760    0.0096 C.ar      1 <0>        -0.1209
      2 C2          1.1662    2.0868    0.0021 C.ar      1 <0>        -0.0936
      3 C3          2.3967    1.4340   -0.0291 C.ar      1 <0>        -0.0755
      4 C4          2.4201    0.0605   -0.0499 C.ar      1 <0>        -0.0665
      5 C5          1.2266   -0.6678   -0.0130 C.ar      1 <0>        -0.1260
      6 C6          0.0021   -0.0041    0.0020 C.ar      1 <0>        -0.0566
      7 C7          1.2842   -2.1436    0.0500 C.2       1 <0>         0.5598
      8 O1          0.2876   -2.8040   -0.1694 O.2       1 <0>        -0.5335
      9 N1          2.4471   -2.7525    0.3513 N.am      1 <0>        -0.7271
     10 C8          3.6229   -1.9689    0.7327 C.3       1 <0>         0.1234
     11 C9          3.7168   -0.7072   -0.1204 C.3       1 <0>         0.1706
     12 N2          4.7906    0.1591    0.3818 N.am      1 <0>        -0.6069
     13 C10         4.9172    1.4937   -0.2120 C.3       1 <0>         0.1068
     14 C11         3.6334    2.2836   -0.0343 C.3       1 <0>        -0.0978
     15 C12         5.6281   -0.2566    1.3525 C.2       1 <0>         0.5221
     16 O2          5.5025   -1.3652    1.8280 O.2       1 <0>        -0.5190
     17 C13         6.7206    0.6560    1.8469 C.3       1 <0>        -0.1009
     18 C14         7.5096   -0.0427    2.9242 C.ar      1 <0>        -0.0674
     19 C15         7.1250    0.0724    4.2470 C.ar      1 <0>        -0.0909
     20 C16         7.8482   -0.5681    5.2355 C.ar      1 <0>        -0.1083
     21 C17         8.9572   -1.3246    4.9008 C.ar      1 <0>        -0.0316
     22 C18         9.3416   -1.4394    3.5767 C.ar      1 <0>        -0.1085
     23 C19         8.6143   -0.8030    2.5885 C.ar      1 <0>        -0.0908
     24 Cl1         9.8664   -2.1289    6.1418 Cl        1 <0>        -0.0689
     25 H1         -0.9601    1.9013    0.0260 H         1 <0>         0.1341
     26 H2          1.1376    3.1663    0.0204 H         1 <0>         0.1298
     27 H3         -0.9221   -0.5629    0.0080 H         1 <0>         0.1400
     28 H4          2.5058   -3.7200    0.3155 H         1 <0>         0.4096
     29 H5          3.5450   -1.6893    1.7833 H         1 <0>         0.0864
     30 H6          4.5201   -2.5705    0.5874 H         1 <0>         0.1100
     31 H7          3.9215   -0.9818   -1.1552 H         1 <0>         0.0964
     32 H8          5.7361    2.0259    0.2720 H         1 <0>         0.0979
     33 H9          5.1334    1.3944   -1.2758 H         1 <0>         0.0794
     34 H10         3.5550    3.0075   -0.8454 H         1 <0>         0.0939
     35 H11         3.6865    2.8268    0.9092 H         1 <0>         0.0849
     36 H12         7.3827    0.9116    1.0196 H         1 <0>         0.1091
     37 H13         6.2782    1.5658    2.2527 H         1 <0>         0.1080
     38 H14         6.2595    0.6633    4.5082 H         1 <0>         0.1295
     39 H15         7.5479   -0.4778    6.2689 H         1 <0>         0.1342
     40 H16        10.2074   -2.0295    3.3148 H         1 <0>         0.1344
     41 H17         8.9114   -0.8964    1.5544 H         1 <0>         0.1303
@<TRIPOS>BOND
     1    1    6 ar
     2    1    2 ar
     3    1   25 1
     4    2    3 ar
     5    2   26 1
     6    3   14 1
     7    3    4 ar
     8    4   11 1
     9    4    5 ar
    10    5    6 ar
    11    5    7 1
    12    6   27 1
    13    7    8 2
    14    7    9 am
    15    9   10 1
    16    9   28 1
    17   10   11 1
    18   10   29 1
    19   10   30 1
    20   11   12 1
    21   11   31 1
    22   12   13 1
    23   12   15 am
    24   13   14 1
    25   13   32 1
    26   13   33 1
    27   14   34 1
    28   14   35 1
    29   15   16 2
    30   15   17 1
    31   17   18 1
    32   17   36 1
    33   17   37 1
    34   18   23 ar
    35   18   19 ar
    36   19   20 ar
    37   19   38 1
    38   20   21 ar
    39   20   39 1
    40   21   22 ar
    41   21   24 1
    42   22   23 ar
    43   22   40 1
    44   23   41 1
@<TRIPOS>MOLECULE
CHEMBL594976__1
   41    44     0     0     0
SMALL
USER_CHARGES

@<TRIPOS>ATOM
      1 C1         -0.0166    1.3760    0.0096 C.ar      1 <0>        -0.1209
      2 C2          1.1662    2.0868    0.0021 C.ar      1 <0>        -0.0936
      3 C3          2.3970    1.4338    0.0028 C.ar      1 <0>        -0.0755
      4 C4          2.4207    0.0601    0.0084 C.ar      1 <0>        -0.0665
      5 C5          1.2266   -0.6678   -0.0135 C.ar      1 <0>        -0.1260
      6 C6          0.0021   -0.0041    0.0020 C.ar      1 <0>        -0.0566
      7 C7          1.2829   -2.1428   -0.0935 C.2       1 <0>         0.5598
      8 O1          0.2903   -2.8056    0.1369 O.2       1 <0>        -0.5336
      9 N1          2.4397   -2.7483   -0.4236 N.am      1 <0>        -0.7270
     10 C8          3.6080   -1.9605   -0.8189 C.3       1 <0>         0.1234
     11 C9          3.7184   -0.7081    0.0458 C.3       1 <0>         0.1706
     12 N2          4.7825    0.1637   -0.4675 N.am      1 <0>        -0.6069
     13 C10         4.9205    1.4919    0.1382 C.3       1 <0>         0.1068
     14 C11         3.6336    2.2834   -0.0064 C.3       1 <0>        -0.0978
     15 C12         5.6018   -0.2418   -1.4578 C.2       1 <0>         0.5220
     16 O2          5.4675   -1.3456   -1.9422 O.2       1 <0>        -0.5190
     17 C13         6.6848    0.6762   -1.9632 C.3       1 <0>        -0.1008
     18 C14         7.4536   -0.0111   -3.0621 C.ar      1 <0>        -0.0674
     19 C15         8.5611   -0.7791   -2.7544 C.ar      1 <0>        -0.0907
     20 C16         9.2667   -1.4097   -3.7618 C.ar      1 <0>        -0.1085
     21 C17         8.8643   -1.2723   -5.0783 C.ar      1 <0>        -0.0316
     22 C18         7.7558   -0.5036   -5.3857 C.ar      1 <0>        -0.1084
     23 C19         7.0477    0.1219   -4.3768 C.ar      1 <0>        -0.0909
     24 Cl1         9.7503   -2.0636   -6.3442 Cl        1 <0>        -0.0689
     25 H1         -0.9601    1.9013    0.0260 H         1 <0>         0.1341
     26 H2          1.1374    3.1664   -0.0047 H         1 <0>         0.1299
     27 H3         -0.9221   -0.5629    0.0077 H         1 <0>         0.1400
     28 H4          2.4992   -3.7162   -0.3987 H         1 <0>         0.4096
     29 H5          4.5079   -2.5635   -0.6972 H         1 <0>         0.1100
     30 H6          3.5101   -1.6696   -1.8647 H         1 <0>         0.0863
     31 H7          3.9428   -0.9938    1.0735 H         1 <0>         0.0964
     32 H8          5.1571    1.3811    1.1964 H         1 <0>         0.0794
     33 H9          5.7301    2.0293   -0.3557 H         1 <0>         0.0979
     34 H10         3.6688    2.8368   -0.9449 H         1 <0>         0.0849
     35 H11         3.5708    2.9985    0.8138 H         1 <0>         0.0939
     36 H12         6.2347    1.5899   -2.3513 H         1 <0>         0.1080
     37 H13         7.3621    0.9236   -1.1458 H         1 <0>         0.1091
     38 H14         8.8754   -0.8860   -1.7266 H         1 <0>         0.1303
     39 H15        10.1321   -2.0093   -3.5213 H         1 <0>         0.1344
     40 H16         7.4414   -0.3957   -6.4132 H         1 <0>         0.1342
     41 H17         6.1796    0.7181   -4.6162 H         1 <0>         0.1296
@<TRIPOS>BOND
     1    1    6 ar
     2    1    2 ar
     3    1   25 1
     4    2    3 ar
     5    2   26 1
     6    3   14 1
     7    3    4 ar
     8    4   11 1
     9    4    5 ar
    10    5    6 ar
    11    5    7 1
    12    6   27 1
    13    7    8 2
    14    7    9 am
    15    9   10 1
    16    9   28 1
    17   10   11 1
    18   10   29 1
    19   10   30 1
    20   11   12 1
    21   11   31 1
    22   12   13 1
    23   12   15 am
    24   13   14 1
    25   13   32 1
    26   13   33 1
    27   14   34 1
    28   14   35 1
    29   15   16 2
    30   15   17 1
    31   17   18 1
    32   17   36 1
    33   17   37 1
    34   18   23 ar
    35   18   19 ar
    36   19   20 ar
    37   19   38 1
    38   20   21 ar
    39   20   39 1
    40   21   22 ar
    41   21   24 1
    42   22   23 ar
    43   22   40 1
    44   23   41 1
@<TRIPOS>MOLECULE
CHEMBL108623
   61    64     0     0     0
SMALL
USER_CHARGES

@<TRIPOS>ATOM
      1 C1         -0.0170    1.3836    0.0159 C.ar      1 <0>        -0.1900
      2 C2          1.1701    2.0567    0.2258 C.ar      1 <0>         0.1611
      3 N1          2.3239    1.4170    0.2030 N.ar      1 <0>        -0.5206
      4 C3          2.3908    0.1134   -0.0202 C.ar      1 <0>         0.4108
      5 C4          1.2342   -0.6273   -0.2400 C.ar      1 <0>        -0.1922
      6 C5          0.0096    0.0160   -0.2216 C.ar      1 <0>        -0.0901
      7 C6         -1.2669   -0.7505   -0.4542 C.3       1 <0>         0.5094
      8 F1         -2.3559    0.1250   -0.3847 F         1 <0>        -0.1710
      9 F2         -1.2285   -1.3476   -1.7189 F         1 <0>        -0.1720
     10 F3         -1.4014   -1.7406    0.5250 F         1 <0>        -0.1722
     11 N2          3.6279   -0.5202   -0.0354 N.pl3     1 <0>        -0.6071
     12 C7          4.8704    0.2648   -0.0368 C.3       1 <0>         0.1122
     13 C8          5.7358   -0.1854    1.1466 C.3       1 <0>         0.0969
     14 N3          5.8248   -1.6522    1.1322 N.am      1 <0>        -0.6083
     15 C9          4.5823   -2.4372    1.1337 C.3       1 <0>         0.0871
     16 C10         3.7169   -1.9871   -0.0441 C.3       1 <0>         0.1055
     17 C11         7.0243   -2.2666    1.1175 C.2       1 <0>         0.5132
     18 O1          8.0428   -1.6082    1.1160 O.2       1 <0>        -0.5313
     19 C12         7.0999   -3.7716    1.1029 C.3       1 <0>         0.0998
     20 N4          8.5038   -4.1899    1.0884 N.am      1 <0>        -0.7178
     21 C13         8.8163   -5.5009    1.0738 C.2       1 <0>         0.5267
     22 O2          7.9352   -6.3343    1.0726 O.2       1 <0>        -0.5340
     23 C14        10.2605   -5.9312    1.0590 C.3       1 <0>        -0.1623
     24 C15        10.3372   -7.4592    1.0441 C.3       1 <0>         0.1169
     25 N5         11.7412   -7.8775    1.0297 N.am      1 <0>        -0.5391
     26 C16        12.3756   -8.0519   -0.1904 C.2       1 <0>         0.2142
     27 C17        13.6620   -8.4105   -0.1898 C.2       1 <0>        -0.2476
     28 C18        14.3119   -8.6479    1.0601 C.2       1 <0>         0.5551
     29 O3         15.4742   -9.0109    1.0760 O.2       1 <0>        -0.5048
     30 N6         13.6542   -8.4743    2.2171 N.am      1 <0>        -0.6561
     31 H1         14.1018   -8.6335    3.0628 H         1 <0>         0.4351
     32 C19        12.3692   -8.0730    2.1940 C.2       1 <0>         0.6982
     33 O4         11.7745   -7.8911    3.2388 O.2       1 <0>        -0.5314
     34 C20        14.5407   -8.5720   -1.4051 C.3       1 <0>        -0.0103
     35 S1         13.5231   -8.7833   -2.8922 S.3       1 <0>        -0.2342
     36 C21        12.2583   -7.4935   -2.6567 C.3       1 <0>        -0.0833
     37 C22        11.4929   -7.8288   -1.3845 C.3       1 <0>        -0.1027
     38 H2         -0.9570    1.9148    0.0407 H         1 <0>         0.1495
     39 H3          1.1541    3.1207    0.4105 H         1 <0>         0.1710
     40 H4          1.2914   -1.6903   -0.4225 H         1 <0>         0.1441
     41 H5          5.4090    0.0954   -0.9692 H         1 <0>         0.0705
     42 H6          4.6340    1.3240    0.0648 H         1 <0>         0.1122
     43 H7          6.7340    0.2426    1.0535 H         1 <0>         0.1074
     44 H8          5.2794    0.1443    2.0799 H         1 <0>         0.0773
     45 H9          4.8187   -3.4964    1.0321 H         1 <0>         0.1035
     46 H10         4.0437   -2.2679    2.0661 H         1 <0>         0.0833
     47 H11         2.7190   -2.4147    0.0527 H         1 <0>         0.1004
     48 H12         4.1715   -2.3205   -0.9770 H         1 <0>         0.0797
     49 H13         6.6116   -4.1686    1.9928 H         1 <0>         0.1029
     50 H14         6.5983   -4.1520    0.2130 H         1 <0>         0.1030
     51 H15         9.2085   -3.5234    1.0894 H         1 <0>         0.4144
     52 H16        10.7487   -5.5342    0.1690 H         1 <0>         0.1033
     53 H17        10.7621   -5.5508    1.9488 H         1 <0>         0.1095
     54 H18         9.8490   -7.8562    1.9341 H         1 <0>         0.1175
     55 H19         9.8356   -7.8395    0.1543 H         1 <0>         0.1115
     56 H20        15.1662   -7.6865   -1.5185 H         1 <0>         0.1029
     57 H21        15.1778   -9.4470   -1.2762 H         1 <0>         0.1278
     58 H22        12.7373   -6.5198   -2.5547 H         1 <0>         0.0958
     59 H23        11.5764   -7.4842   -3.5071 H         1 <0>         0.1259
     60 H24        10.9069   -8.7313   -1.5580 H         1 <0>         0.1175
     61 H25        10.8085   -7.0097   -1.1636 H         1 <0>         0.1052
@<TRIPOS>BOND
     1    1    6 ar
     2    1    2 ar
     3    1   38 1
     4    2    3 ar
     5    2   39 1
     6    3    4 ar
     7    4    5 ar
     8    4   11 1
     9    5    6 ar
    10    5   40 1
    11    6    7 1
    12    7    8 1
    13    7    9 1
    14    7   10 1
    15   11   16 1
    16   11   12 1
    17   12   13 1
    18   12   41 1
    19   12   42 1
    20   13   14 1
    21   13   43 1
    22   13   44 1
    23   14   15 1
    24   14   17 am
    25   15   16 1
    26   15   45 1
    27   15   46 1
    28   16   47 1
    29   16   48 1
    30   17   18 2
    31   17   19 1
    32   19   20 1
    33   19   49 1
    34   19   50 1
    35   20   21 am
    36   20   51 1
    37   21   22 2
    38   21   23 1
    39   23   24 1
    40   23   52 1
    41   23   53 1
    42   24   25 1
    43   24   54 1
    44   24   55 1
    45   25   32 am
    46   25   26 1
    47   26   37 1
    48   26   27 2
    49   27   28 1
    50   27   34 1
    51   28   29 2
    52   28   30 am
    53   30   31 1
    54   30   32 am
    55   32   33 2
    56   34   35 1
    57   34   56 1
    58   34   57 1
    59   35   36 1
    60   36   37 1
    61   36   58 1
    62   36   59 1
    63   37   60 1
    64   37   61 1
@<TRIPOS>MOLECULE
CHEMBL249813
   52    55     0     0     0
SMALL
USER_CHARGES

@<TRIPOS>ATOM
      1 C1         -0.0167    1.3781    0.0096 C.ar      1 <0>        -0.1099
      2 C2          1.1709    2.0855    0.0021 C.ar      1 <0>        -0.1128
      3 C3          2.3773    1.4107   -0.0130 C.ar      1 <0>        -0.1100
      4 C4          2.3960    0.0285   -0.0201 C.ar      1 <0>        -0.0976
      5 C5          1.2084   -0.6789   -0.0117 C.ar      1 <0>        -0.1164
      6 C6          0.0021   -0.0041    0.0020 C.ar      1 <0>        -0.1146
      7 C7          3.7112   -0.7071   -0.0376 C.3       1 <0>        -0.0537
      8 C8          3.7885   -1.5882   -1.2877 C.3       1 <0>        -0.1401
      9 C9          5.0904   -2.3918   -1.2589 C.3       1 <0>        -0.0054
     10 N1          5.1211   -3.2377   -0.0597 N.4       1 <0>        -0.3821
     11 C10         5.1196   -2.3966    1.1432 C.3       1 <0>        -0.0119
     12 C11         3.8189   -1.5931    1.2068 C.3       1 <0>        -0.1392
     13 C12         6.3355   -4.0641   -0.0761 C.3       1 <0>        -0.0138
     14 C13         6.3082   -5.0342    1.1067 C.3       1 <0>        -0.1322
     15 C14         7.5731   -5.8949    1.0896 C.3       1 <0>        -0.0716
     16 C15         7.5462   -6.8504    2.2546 C.2       1 <0>         0.3871
     17 N2          8.5936   -7.7008    2.4149 N.am      1 <0>        -0.6535
     18 H1          9.3311   -7.6789    1.7852 H         1 <0>         0.4202
     19 C16         8.6175   -8.5779    3.4454 C.2       1 <0>         0.5499
     20 O1          9.5498   -9.3449    3.6014 O.2       1 <0>        -0.4960
     21 C17         7.4737   -8.5679    4.3694 C.ar      1 <0>        -0.1942
     22 C18         7.4006   -9.4306    5.4612 C.ar      1 <0>        -0.0398
     23 C19         6.3051   -9.3788    6.2949 C.ar      1 <0>        -0.1282
     24 C20         5.2771   -8.4761    6.0554 C.ar      1 <0>        -0.0695
     25 C21         5.3299   -7.6157    4.9820 C.ar      1 <0>        -0.1092
     26 C22         6.4301   -7.6486    4.1227 C.ar      1 <0>         0.1442
     27 N3          6.5259   -6.8151    3.0567 N.2       1 <0>        -0.5183
     28 H2         -0.9591    1.9053    0.0259 H         1 <0>         0.1275
     29 H3          1.1563    3.1654    0.0076 H         1 <0>         0.1278
     30 H4          3.3051    1.9634   -0.0196 H         1 <0>         0.1235
     31 H5          1.2231   -1.7588   -0.0176 H         1 <0>         0.1178
     32 H6         -0.9258   -0.5567    0.0082 H         1 <0>         0.1263
     33 H7          4.5307    0.0115   -0.0454 H         1 <0>         0.0953
     34 H8          2.9394   -2.2714   -1.3046 H         1 <0>         0.0902
     35 H9          3.7685   -0.9595   -2.1779 H         1 <0>         0.1139
     36 H10         5.1488   -3.0201   -2.1477 H         1 <0>         0.1319
     37 H11         5.9388   -1.7078   -1.2423 H         1 <0>         0.1295
     38 H12         5.1996   -3.0283    2.0278 H         1 <0>         0.1360
     39 H13         5.9674   -1.7124    1.1086 H         1 <0>         0.1294
     40 H14         3.8205   -0.9680    2.0997 H         1 <0>         0.1137
     41 H15         2.9704   -2.2764    1.2417 H         1 <0>         0.0902
     42 H16         6.3785   -4.6282   -1.0078 H         1 <0>         0.1327
     43 H17         7.2130   -3.4220    0.0007 H         1 <0>         0.1311
     44 H18         6.2652   -4.4700    2.0384 H         1 <0>         0.1005
     45 H19         5.4308   -5.6762    1.0299 H         1 <0>         0.1005
     46 H20         7.6161   -6.4590    0.1579 H         1 <0>         0.1096
     47 H21         8.4505   -5.2528    1.1664 H         1 <0>         0.1092
     48 H22         8.1968  -10.1348    5.6522 H         1 <0>         0.1419
     49 H23         6.2449  -10.0462    7.1419 H         1 <0>         0.1393
     50 H24         4.4256   -8.4491    6.7192 H         1 <0>         0.1389
     51 H25         4.5245   -6.9181    4.8058 H         1 <0>         0.1387
     52 H26         4.3092   -3.8367   -0.0510 H         1 <0>         0.4235
@<TRIPOS>BOND
     1    1    6 ar
     2    1    2 ar
     3    1   28 1
     4    2    3 ar
     5    2   29 1
     6    3    4 ar
     7    3   30 1
     8    4    5 ar
     9    4    7 1
    10    5    6 ar
    11    5   31 1
    12    6   32 1
    13    7   12 1
    14    7    8 1
    15    7   33 1
    16    8    9 1
    17    8   34 1
    18    8   35 1
    19    9   10 1
    20    9   36 1
    21    9   37 1
    22   10   11 1
    23   10   13 1
    24   10   52 1
    25   11   12 1
    26   11   38 1
    27   11   39 1
    28   12   40 1
    29   12   41 1
    30   13   14 1
    31   13   42 1
    32   13   43 1
    33   14   15 1
    34   14   44 1
    35   14   45 1
    36   15   16 1
    37   15   46 1
    38   15   47 1
    39   16   27 2
    40   16   17 1
    41   17   18 1
    42   17   19 am
    43   19   20 2
    44   19   21 1
    45   21   26 ar
    46   21   22 ar
    47   22   23 ar
    48   22   48 1
    49   23   24 ar
    50   23   49 1
    51   24   25 ar
    52   24   50 1
    53   25   26 ar
    54   25   51 1
    55   26   27 1
@<TRIPOS>MOLECULE
CHEMBL84265
   52    55     0     0     0
SMALL
USER_CHARGES

@<TRIPOS>ATOM
      1 C1         -0.0165    1.3630    0.0095 C.ar      1 <0>        -0.0757
      2 C2          1.1650    2.0935    0.0022 C.ar      1 <0>        -0.1322
      3 C3          2.3792    1.4638   -0.0116 C.ar      1 <0>        -0.0433
      4 C4          2.4270    0.0703   -0.0190 C.ar      1 <0>        -0.1505
      5 C5          1.2278   -0.6733   -0.0137 C.ar      1 <0>         0.0093
      6 C6          0.0021   -0.0041    0.0020 C.ar      1 <0>        -0.1330
      7 C7          1.3000   -2.1416   -0.0277 C.2       1 <0>        -0.1809
      8 C8          2.4951   -2.7439   -0.0514 C.2       1 <0>         0.1661
      9 N1          3.6618   -2.0119   -0.0445 N.am      1 <0>        -0.6364
     10 C9          3.6929   -0.6699   -0.0319 C.2       1 <0>         0.5506
     11 O1          4.7562   -0.0762   -0.0309 O.2       1 <0>        -0.5156
     12 C10         2.6503   -4.2445   -0.1067 C.3       1 <0>        -0.1081
     13 C11         1.3888   -4.9467    0.3894 C.3       1 <0>         0.1242
     14 N2          0.2365   -4.3195   -0.2805 N.pl3     1 <0>        -0.9957
     15 C12        -0.0029   -2.9005   -0.0010 C.3       1 <0>         0.1784
     16 S1         -0.7432   -5.1780   -1.3031 S.o2      1 <0>         2.6218
     17 O2         -1.2900   -4.2053   -2.1830 O.2       1 <0>        -0.9228
     18 O3          0.0798   -6.2239   -1.8008 O.2       1 <0>        -0.9246
     19 C13        -2.0446   -5.8596   -0.2389 C.3       1 <0>        -0.6956
     20 C14        -3.0184   -6.6808   -1.0864 C.3       1 <0>         0.0054
     21 N3         -4.0722   -7.2328   -0.2246 N.4       1 <0>        -0.3765
     22 C15        -3.4782   -8.1798    0.7267 C.3       1 <0>        -0.0161
     23 C16        -4.5583   -8.6966    1.6795 C.3       1 <0>        -0.1452
     24 C17        -5.6507   -9.4013    0.8700 C.3       1 <0>        -0.1407
     25 C18        -6.2116   -8.4262   -0.1691 C.3       1 <0>        -0.1458
     26 C19        -5.0703   -7.9194   -1.0534 C.3       1 <0>        -0.0121
     27 H1         -0.9632    1.8824    0.0259 H         1 <0>         0.1318
     28 H2          1.1243    3.1727    0.0070 H         1 <0>         0.1344
     29 H3          3.2923    2.0406   -0.0169 H         1 <0>         0.1408
     30 H4         -0.9229   -0.5615    0.0085 H         1 <0>         0.1312
     31 H5          2.8462   -4.5460   -1.1356 H         1 <0>         0.1024
     32 H6          3.4932   -4.5400    0.5181 H         1 <0>         0.1045
     33 H7          1.4317   -6.0061    0.1367 H         1 <0>         0.1074
     34 H8          1.2991   -4.8266    1.4690 H         1 <0>         0.0899
     35 H9         -0.4610   -2.7980    0.9827 H         1 <0>         0.0862
     36 H10        -0.6751   -2.4917   -0.7554 H         1 <0>         0.1078
     37 H11        -1.5950   -6.4994    0.5204 H         1 <0>         0.1557
     38 H12        -2.5824   -5.0443    0.2450 H         1 <0>         0.1577
     39 H13        -3.4680   -6.0410   -1.8457 H         1 <0>         0.1466
     40 H14        -2.4805   -7.4961   -1.5702 H         1 <0>         0.1444
     41 H15        -3.0442   -9.0178    0.1814 H         1 <0>         0.1328
     42 H16        -2.6988   -7.6776    1.2998 H         1 <0>         0.1298
     43 H17        -4.1157   -9.4009    2.3839 H         1 <0>         0.1139
     44 H18        -4.9929   -7.8593    2.2256 H         1 <0>         0.0882
     45 H19        -5.2271  -10.2690    0.3643 H         1 <0>         0.0833
     46 H20        -6.4501   -9.7217    1.5381 H         1 <0>         0.0959
     47 H21        -6.9507   -8.9372   -0.7861 H         1 <0>         0.1151
     48 H22        -6.6805   -7.5833    0.3386 H         1 <0>         0.0887
     49 H23        -5.4662   -7.2251   -1.7945 H         1 <0>         0.1344
     50 H24        -4.6023   -8.7630   -1.5608 H         1 <0>         0.1324
     51 H25         4.5051   -2.4912   -0.0489 H         1 <0>         0.4147
     52 H26        -4.5168   -6.4830    0.2835 H         1 <0>         0.4249
@<TRIPOS>BOND
     1    1    6 ar
     2    1    2 ar
     3    1   27 1
     4    2    3 ar
     5    2   28 1
     6    3    4 ar
     7    3   29 1
     8    4   10 1
     9    4    5 ar
    10    5    6 ar
    11    5    7 1
    12    6   30 1
    13    7   15 1
    14    7    8 2
    15    8    9 1
    16    8   12 1
    17    9   10 am
    18    9   51 1
    19   10   11 2
    20   12   13 1
    21   12   31 1
    22   12   32 1
    23   13   14 1
    24   13   33 1
    25   13   34 1
    26   14   15 1
    27   14   16 1
    28   15   35 1
    29   15   36 1
    30   16   17 2
    31   16   18 2
    32   16   19 1
    33   19   20 1
    34   19   37 1
    35   19   38 1
    36   20   21 1
    37   20   39 1
    38   20   40 1
    39   21   26 1
    40   21   22 1
    41   21   52 1
    42   22   23 1
    43   22   41 1
    44   22   42 1
    45   23   24 1
    46   23   43 1
    47   23   44 1
    48   24   25 1
    49   24   45 1
    50   24   46 1
    51   25   26 1
    52   25   47 1
    53   25   48 1
    54   26   49 1
    55   26   50 1
@<TRIPOS>MOLECULE
CHEMBL604878
   49    52     0     0     0
SMALL
USER_CHARGES

@<TRIPOS>ATOM
      1 C1         -0.0169    1.3956   -0.1221 C.ar      1 <0>        -0.1663
      2 C2          1.1185    2.1338   -0.2295 C.ar      1 <0>        -0.0069
      3 C3          2.3827    1.5196   -0.1434 C.ar      1 <0>        -0.2037
      4 C4          3.6918    1.9651   -0.2095 C.2       1 <0>         0.0846
      5 N1          4.4955    0.9016   -0.0581 N.pl3     1 <0>        -0.2834
      6 N2          3.7276   -0.2567    0.1094 N.2       1 <0>        -0.2649
      7 C5          2.4525    0.0640    0.0655 C.ar      1 <0>         0.1451
      8 C6          1.1931   -0.6790    0.1738 C.ar      1 <0>        -0.1265
      9 C7          0.0004    0.0208    0.0752 C.ar      1 <0>        -0.0181
     10 C8          1.1951   -2.1358    0.3824 C.2       1 <0>         0.5630
     11 O1          2.2494   -2.7367    0.4669 O.2       1 <0>        -0.5268
     12 N3          0.0288   -2.8042    0.4799 N.am      1 <0>        -0.8525
     13 C9          5.8958    0.9439   -0.0670 C.ar      1 <0>         0.1506
     14 C10         6.5530    2.1559   -0.2366 C.ar      1 <0>        -0.1149
     15 C11         7.9323    2.1976   -0.2453 C.ar      1 <0>        -0.0891
     16 C12         8.6636    1.0277   -0.0839 C.ar      1 <0>         0.1179
     17 C13         8.0064   -0.1843    0.0862 C.ar      1 <0>        -0.1064
     18 C14         6.6271   -0.2253    0.0997 C.ar      1 <0>        -0.0842
     19 N4         10.0625    1.0699   -0.0932 N.am      1 <0>        -0.6441
     20 C15        10.7075    2.1441    0.4033 C.2       1 <0>         0.5007
     21 O2         10.0815    3.0309    0.9444 O.2       1 <0>        -0.5096
     22 C16        12.2067    2.2433    0.2862 C.3       1 <0>        -0.0245
     23 N5         12.6638    3.4975    0.8994 N.4       1 <0>        -0.3821
     24 C17        12.4719    3.4476    2.3714 C.3       1 <0>        -0.0092
     25 C18        13.4686    4.5121    2.8951 C.3       1 <0>        -0.1440
     26 C19        14.6817    4.3435    1.9517 C.3       1 <0>        -0.1448
     27 C20        14.1175    3.6685    0.6877 C.3       1 <0>        -0.0081
     28 H1         -0.9706    1.8981   -0.1883 H         1 <0>         0.1356
     29 H2          1.0509    3.2008   -0.3826 H         1 <0>         0.1333
     30 H3          4.0095    2.9867   -0.3570 H         1 <0>         0.1921
     31 H4         -0.9346   -0.5141    0.1531 H         1 <0>         0.1373
     32 H5         -0.8119   -2.3250    0.4126 H         1 <0>         0.4000
     33 H6          0.0301   -3.7644    0.6174 H         1 <0>         0.4077
     34 H7          5.9844    3.0655   -0.3621 H         1 <0>         0.1418
     35 H8          8.4432    3.1398   -0.3780 H         1 <0>         0.1444
     36 H9          8.5749   -1.0939    0.2114 H         1 <0>         0.1431
     37 H10         6.1161   -1.1670    0.2358 H         1 <0>         0.1548
     38 H11        10.5677    0.3261   -0.4569 H         1 <0>         0.4223
     39 H12        12.6679    1.3991    0.7987 H         1 <0>         0.1620
     40 H13        12.4907    2.2288   -0.7661 H         1 <0>         0.1636
     41 H14        11.4489    3.7157    2.6354 H         1 <0>         0.1458
     42 H15        12.7243    2.4606    2.7590 H         1 <0>         0.1311
     43 H16        13.0464    5.5130    2.8054 H         1 <0>         0.0995
     44 H17        13.7503    4.3021    3.9269 H         1 <0>         0.1179
     45 H18        15.1061    5.3164    1.7036 H         1 <0>         0.1071
     46 H19        15.4361    3.7079    2.4153 H         1 <0>         0.1055
     47 H20        14.5888    2.6962    0.5443 H         1 <0>         0.1334
     48 H21        14.2943    4.3017   -0.1817 H         1 <0>         0.1357
     49 H22        12.1609    4.2800    0.5083 H         1 <0>         0.4342
@<TRIPOS>BOND
     1    1    9 ar
     2    1    2 ar
     3    1   28 1
     4    2    3 ar
     5    2   29 1
     6    3    7 ar
     7    3    4 2
     8    4    5 1
     9    4   30 1
    10    5    6 1
    11    5   13 1
    12    6    7 2
    13    7    8 ar
    14    8    9 ar
    15    8   10 1
    16    9   31 1
    17   10   11 2
    18   10   12 am
    19   12   32 1
    20   12   33 1
    21   13   18 ar
    22   13   14 ar
    23   14   15 ar
    24   14   34 1
    25   15   16 ar
    26   15   35 1
    27   16   17 ar
    28   16   19 1
    29   17   18 ar
    30   17   36 1
    31   18   37 1
    32   19   20 am
    33   19   38 1
    34   20   21 2
    35   20   22 1
    36   22   23 1
    37   22   39 1
    38   22   40 1
    39   23   27 1
    40   23   24 1
    41   23   49 1
    42   24   25 1
    43   24   41 1
    44   24   42 1
    45   25   26 1
    46   25   43 1
    47   25   44 1
    48   26   27 1
    49   26   45 1
    50   26   46 1
    51   27   47 1
    52   27   48 1
@<TRIPOS>MOLECULE
CHEMBL593377
   52    55     0     0     0
SMALL
USER_CHARGES

@<TRIPOS>ATOM
      1 C1         -0.0181    1.3518   -0.0352 C.ar      1 <0>        -0.1668
      2 C2          1.1140    2.1028   -0.0329 C.ar      1 <0>        -0.0061
      3 C3          2.3809    1.4882   -0.0461 C.ar      1 <0>        -0.2039
      4 C4          3.6880    1.9443   -0.0483 C.2       1 <0>         0.0851
      5 N1          4.4964    0.8737   -0.0639 N.pl3     1 <0>        -0.2837
      6 N2          3.7336   -0.2999   -0.0722 N.2       1 <0>        -0.2654
      7 C5          2.4572    0.0181   -0.0620 C.ar      1 <0>         0.1450
      8 C6          1.2010   -0.7383   -0.0637 C.ar      1 <0>        -0.1274
      9 C7          0.0053   -0.0369   -0.0500 C.ar      1 <0>        -0.0176
     10 C8          1.2095   -2.2098   -0.0797 C.2       1 <0>         0.5632
     11 O1          2.2664   -2.8119   -0.0918 O.2       1 <0>        -0.5274
     12 N3          0.0461   -2.8904   -0.0811 N.am      1 <0>        -0.8526
     13 C9          5.8965    0.9231   -0.0713 C.ar      1 <0>         0.1514
     14 C10         6.5483    2.1496   -0.0565 C.ar      1 <0>        -0.1146
     15 C11         7.9274    2.1982   -0.0637 C.ar      1 <0>        -0.1038
     16 C12         8.6638    1.0206   -0.0854 C.ar      1 <0>         0.1141
     17 C13         8.0120   -0.2060   -0.0997 C.ar      1 <0>        -0.0899
     18 C14         6.6329   -0.2547   -0.0875 C.ar      1 <0>        -0.0878
     19 N4         10.0625    1.0699   -0.0932 N.am      1 <0>        -0.6432
     20 C15        10.7736    0.1296    0.5600 C.2       1 <0>         0.5004
     21 O2         10.2056   -0.8054    1.0837 O.2       1 <0>        -0.5069
     22 C16        12.2744    0.2399    0.6396 C.3       1 <0>        -0.0288
     23 N5         12.8095   -0.8985    1.3983 N.4       1 <0>        -0.3698
     24 C17        12.3325   -0.8283    2.7846 C.3       1 <0>        -0.0199
     25 C18        12.8205   -2.0548    3.5587 C.3       1 <0>        -0.1422
     26 C19        14.3515   -2.0844    3.5449 C.3       1 <0>        -0.1401
     27 C20        14.8392   -2.0825    2.0932 C.3       1 <0>        -0.1456
     28 C21        14.2765   -0.8550    1.3735 C.3       1 <0>        -0.0066
     29 H1         -0.9739    1.8543   -0.0206 H         1 <0>         0.1357
     30 H2          1.0418    3.1803   -0.0212 H         1 <0>         0.1337
     31 H3          4.0012    2.9779   -0.0394 H         1 <0>         0.1930
     32 H4         -0.9273   -0.5815   -0.0512 H         1 <0>         0.1371
     33 H5         -0.7967   -2.4102   -0.0715 H         1 <0>         0.4001
     34 H6          0.0517   -3.8603   -0.0917 H         1 <0>         0.4074
     35 H7          5.9758    3.0652   -0.0397 H         1 <0>         0.1441
     36 H8          8.4342    3.1519   -0.0530 H         1 <0>         0.1434
     37 H9          8.5845   -1.1216   -0.1168 H         1 <0>         0.1490
     38 H10         6.1261   -1.2083   -0.0948 H         1 <0>         0.1522
     39 H11        10.5200    1.7808   -0.5687 H         1 <0>         0.4220
     40 H12        12.6930    0.2348   -0.3668 H         1 <0>         0.1639
     41 H13        12.5443    1.1695    1.1407 H         1 <0>         0.1629
     42 H14        12.7187    0.0755    3.2559 H         1 <0>         0.1253
     43 H15        11.2428   -0.8040    2.7927 H         1 <0>         0.1460
     44 H16        12.4668   -1.9998    4.5882 H         1 <0>         0.1121
     45 H17        12.4346   -2.9592    3.0884 H         1 <0>         0.0891
     46 H18        14.7378   -1.2051    4.0604 H         1 <0>         0.0817
     47 H19        14.7032   -2.9861    4.0463 H         1 <0>         0.0950
     48 H20        15.9285   -2.0473    2.0753 H         1 <0>         0.1146
     49 H21        14.4953   -2.9875    1.5925 H         1 <0>         0.0891
     50 H22        14.6220   -0.8504    0.3397 H         1 <0>         0.1323
     51 H23        14.6212    0.0494    1.8748 H         1 <0>         0.1311
     52 H24        12.4925   -1.7597    0.9789 H         1 <0>         0.4298
@<TRIPOS>BOND
     1    1    9 ar
     2    1    2 ar
     3    1   29 1
     4    2    3 ar
     5    2   30 1
     6    3    7 ar
     7    3    4 2
     8    4    5 1
     9    4   31 1
    10    5    6 1
    11    5   13 1
    12    6    7 2
    13    7    8 ar
    14    8    9 ar
    15    8   10 1
    16    9   32 1
    17   10   11 2
    18   10   12 am
    19   12   33 1
    20   12   34 1
    21   13   18 ar
    22   13   14 ar
    23   14   15 ar
    24   14   35 1
    25   15   16 ar
    26   15   36 1
    27   16   17 ar
    28   16   19 1
    29   17   18 ar
    30   17   37 1
    31   18   38 1
    32   19   20 am
    33   19   39 1
    34   20   21 2
    35   20   22 1
    36   22   23 1
    37   22   40 1
    38   22   41 1
    39   23   28 1
    40   23   24 1
    41   23   52 1
    42   24   25 1
    43   24   42 1
    44   24   43 1
    45   25   26 1
    46   25   44 1
    47   25   45 1
    48   26   27 1
    49   26   46 1
    50   26   47 1
    51   27   28 1
    52   27   48 1
    53   27   49 1
    54   28   50 1
    55   28   51 1
@<TRIPOS>MOLECULE
CHEMBL597314
   74    78     0     0     0
SMALL
USER_CHARGES

@<TRIPOS>ATOM
      1 C1         -1.4164   -3.1890   -0.7478 C.3       1 <0>        -0.1254
      2 C2         -1.6702   -4.0587    0.4565 C.2       1 <0>        -0.0458
      3 C3         -2.2961   -5.2661    0.3290 C.2       1 <0>        -0.1524
      4 C4         -2.5011   -6.0284    1.4993 C.2       1 <0>         0.4822
      5 O1         -3.0554   -7.1143    1.4388 O.2       1 <0>        -0.5245
      6 N1         -2.0785   -5.5451    2.6831 N.am      1 <0>        -0.4489
      7 H1         -2.2204   -6.0705    3.4861 H         1 <0>         0.4406
      8 N2         -1.4921   -4.4068    2.7756 N.2       1 <0>        -0.2134
      9 C5         -1.2639   -3.6508    1.7378 C.2       1 <0>         0.0667
     10 C6         -0.5645   -2.3277    1.9151 C.3       1 <0>        -0.0126
     11 C7         -0.2351   -2.1249    3.3716 C.ar      1 <0>        -0.0816
     12 C8         -1.1469   -1.4988    4.2045 C.ar      1 <0>        -0.0480
     13 C9         -0.8545   -1.3080    5.5417 C.ar      1 <0>        -0.1498
     14 C10         0.3534   -1.7428    6.0569 C.ar      1 <0>         0.1471
     15 C11         1.2776   -2.3760    5.2203 C.ar      1 <0>        -0.1715
     16 C12         0.9706   -2.5684    3.8715 C.ar      1 <0>        -0.0499
     17 C13         2.5700   -2.8433    5.7613 C.2       1 <0>         0.5731
     18 O2          2.5936   -3.5791    6.7288 O.2       1 <0>        -0.5076
     19 N3          3.7231   -2.4539    5.1825 N.am      1 <0>        -0.6132
     20 C14         3.7177   -1.4652    4.0952 C.3       1 <0>         0.0883
     21 C15         4.6455   -0.3067    4.4817 C.3       1 <0>         0.0951
     22 N4          5.9309   -0.8629    4.9268 N.am      1 <0>        -0.6035
     23 C16         5.9364   -1.8517    6.0140 C.3       1 <0>         0.0686
     24 C17         5.0091   -3.0060    5.6313 C.3       1 <0>         0.0984
     25 C18         7.0841   -0.4736    4.3479 C.2       1 <0>         0.5088
     26 O3          7.0750    0.3967    3.5033 O.2       1 <0>        -0.4795
     27 C19         8.3848   -1.1196    4.7502 C.3       1 <0>         0.0322
     28 C20         9.5205   -0.6444    3.8206 C.3       1 <0>        -0.1258
     29 C21        10.4091   -1.8993    3.6344 C.3       1 <0>        -0.1335
     30 C22         9.3701   -3.0454    3.5568 C.3       1 <0>        -0.1260
     31 C23         8.2892   -2.6462    4.5824 C.3       1 <0>        -0.1439
     32 N5          8.7019   -0.7855    6.1451 N.4       1 <0>        -0.4999
     33 C24         8.6977    0.6739    6.3122 C.3       1 <0>         0.0178
     34 C25         9.0279    1.0219    7.7651 C.3       1 <0>        -0.2148
     35 C26         7.9493    1.7342    8.5836 C.3       1 <0>        -0.1666
     36 C27         9.1882    2.5019    8.1181 C.3       1 <0>        -0.1452
     37 F1          0.6393   -1.5558    7.3640 F         1 <0>        -0.1257
     38 C28        -2.7531   -5.7677   -1.0167 C.3       1 <0>        -0.1022
     39 H2         -0.4474   -3.4398   -1.1794 H         1 <0>         0.0876
     40 H3         -2.1984   -3.3567   -1.4884 H         1 <0>         0.0842
     41 H4         -1.4198   -2.1414   -0.4467 H         1 <0>         0.0806
     42 H5          0.3553   -2.3217    1.3303 H         1 <0>         0.1028
     43 H6         -1.2167   -1.5235    1.5747 H         1 <0>         0.1069
     44 H7         -2.0914   -1.1575    3.8072 H         1 <0>         0.1405
     45 H8         -1.5701   -0.8182    6.1855 H         1 <0>         0.1465
     46 H9          1.6782   -3.0601    3.2204 H         1 <0>         0.1346
     47 H10         4.0758   -1.9297    3.1764 H         1 <0>         0.0837
     48 H11         2.7052   -1.0894    3.9475 H         1 <0>         0.1130
     49 H12         4.8054    0.3379    3.6174 H         1 <0>         0.1175
     50 H13         4.1955    0.2679    5.2913 H         1 <0>         0.0885
     51 H14         6.9488   -2.2275    6.1617 H         1 <0>         0.0809
     52 H15         5.5783   -1.3872    6.9328 H         1 <0>         0.0997
     53 H16         4.8492   -3.6476    6.4979 H         1 <0>         0.1184
     54 H17         5.4612   -3.5828    4.8245 H         1 <0>         0.0817
     55 H18         9.1174   -0.3169    2.8624 H         1 <0>         0.1260
     56 H19        10.0880    0.1584    4.2913 H         1 <0>         0.0956
     57 H20        10.9815   -1.8335    2.7092 H         1 <0>         0.0984
     58 H21        11.0705   -2.0348    4.4902 H         1 <0>         0.0786
     59 H22         8.9426   -3.1056    2.5559 H         1 <0>         0.0873
     60 H23         9.8278   -3.9948    3.8349 H         1 <0>         0.0936
     61 H24         8.4789   -3.1392    5.5359 H         1 <0>         0.0991
     62 H25         7.3019   -2.9198    4.2101 H         1 <0>         0.1078
     63 H26         8.0105   -1.1959    6.7547 H         1 <0>         0.4226
     64 H27         9.4446    1.1172    5.6536 H         1 <0>         0.1421
     65 H28         7.7123    1.0657    6.0598 H         1 <0>         0.1283
     66 H29         9.6663    0.3082    8.2860 H         1 <0>         0.1290
     67 H30         7.0044    1.9550    8.0871 H         1 <0>         0.1047
     68 H31         7.8778    1.4892    9.6433 H         1 <0>         0.1127
     69 H32         9.9317    2.7619    8.8716 H         1 <0>         0.1152
     70 H33         9.0584    3.2278    7.3154 H         1 <0>         0.1086
     71 H34        -1.9533   -6.3456   -1.4797 H         1 <0>         0.0803
     72 H35        -3.6317   -6.4001   -0.8894 H         1 <0>         0.0804
     73 H36        -3.0048   -4.9200   -1.6540 H         1 <0>         0.0799
     74 H37         9.6140   -1.1482    6.3788 H         1 <0>         0.4346
@<TRIPOS>BOND
     1    1    2 1
     2    1   39 1
     3    1   40 1
     4    1   41 1
     5    2    9 1
     6    2    3 2
     7    3    4 1
     8    3   38 1
     9    4    5 2
    10    4    6 am
    11    6    7 1
    12    6    8 1
    13    8    9 2
    14    9   10 1
    15   10   11 1
    16   10   42 1
    17   10   43 1
    18   11   16 ar
    19   11   12 ar
    20   12   13 ar
    21   12   44 1
    22   13   14 ar
    23   13   45 1
    24   14   15 ar
    25   14   37 1
    26   15   16 ar
    27   15   17 1
    28   16   46 1
    29   17   18 2
    30   17   19 am
    31   19   24 1
    32   19   20 1
    33   20   21 1
    34   20   47 1
    35   20   48 1
    36   21   22 1
    37   21   49 1
    38   21   50 1
    39   22   23 1
    40   22   25 am
    41   23   24 1
    42   23   51 1
    43   23   52 1
    44   24   53 1
    45   24   54 1
    46   25   26 2
    47   25   27 1
    48   27   31 1
    49   27   28 1
    50   27   32 1
    51   28   29 1
    52   28   55 1
    53   28   56 1
    54   29   30 1
    55   29   57 1
    56   29   58 1
    57   30   31 1
    58   30   59 1
    59   30   60 1
    60   31   61 1
    61   31   62 1
    62   32   33 1
    63   32   63 1
    64   32   74 1
    65   33   34 1
    66   33   64 1
    67   33   65 1
    68   34   36 1
    69   34   35 1
    70   34   66 1
    71   35   36 1
    72   35   67 1
    73   35   68 1
    74   36   69 1
    75   36   70 1
    76   38   71 1
    77   38   72 1
    78   38   73 1
@<TRIPOS>MOLECULE
CHEMBL597314__1
   73    77     0     0     0
SMALL
USER_CHARGES

@<TRIPOS>ATOM
      1 C1         -2.8167   -3.0100   -0.3651 C.3       1 <0>        -0.1083
      2 C2         -2.9022   -1.7095   -1.1217 C.ar      1 <0>        -0.0668
      3 C3         -3.6686   -1.6019   -2.2724 C.ar      1 <0>        -0.1997
      4 C4         -3.7020   -0.3703   -2.9208 C.ar      1 <0>         0.3661
      5 O1         -4.4377   -0.2147   -4.0503 O.3       1 <0>        -0.6931
      6 N1         -3.0133    0.6483   -2.4306 N.ar      1 <0>        -0.3582
      7 N2         -2.3055    0.5433   -1.3650 N.ar      1 <0>        -0.2007
      8 C5         -2.2212   -0.5828   -0.6845 C.ar      1 <0>        -0.0747
      9 C6         -1.3800   -0.6476    0.5643 C.3       1 <0>        -0.0036
     10 C7         -2.2489   -0.3931    1.7690 C.ar      1 <0>        -0.0670
     11 C8         -2.5247    0.9066    2.1586 C.ar      1 <0>        -0.0476
     12 C9         -3.3204    1.1507    3.2619 C.ar      1 <0>        -0.1519
     13 C10        -3.8475    0.0956    3.9846 C.ar      1 <0>         0.1337
     14 C11        -3.5725   -1.2189    3.5952 C.ar      1 <0>        -0.1787
     15 C12        -2.7712   -1.4550    2.4760 C.ar      1 <0>        -0.0660
     16 C13        -4.1305   -2.3519    4.3610 C.2       1 <0>         0.5779
     17 O2         -5.3242   -2.4052    4.5846 O.2       1 <0>        -0.5113
     18 N3         -3.3162   -3.3266    4.8118 N.am      1 <0>        -0.6140
     19 C14        -1.8591   -3.2157    4.6558 C.3       1 <0>         0.0863
     20 C15        -1.2059   -3.3626    6.0357 C.3       1 <0>         0.0956
     21 N4         -1.7591   -4.5552    6.6926 N.am      1 <0>        -0.6020
     22 C16        -3.2162   -4.6661    6.8486 C.3       1 <0>         0.0707
     23 C17        -3.8691   -4.5165    5.4738 C.3       1 <0>         0.0986
     24 C18        -0.9448   -5.5299    7.1435 C.2       1 <0>         0.5076
     25 O3          0.2585   -5.3915    7.0819 O.2       1 <0>        -0.4811
     26 C19        -1.5295   -6.7916    7.7241 C.3       1 <0>         0.0323
     27 C20        -0.4053   -7.8022    8.0318 C.3       1 <0>        -0.1258
     28 C21        -1.0236   -9.1776    7.6782 C.3       1 <0>        -0.1328
     29 C22        -1.8629   -8.8606    6.4156 C.3       1 <0>        -0.1258
     30 C23        -2.4563   -7.4646    6.6965 C.3       1 <0>        -0.1433
     31 N5         -2.2779   -6.4815    8.9495 N.4       1 <0>        -0.5009
     32 C24        -1.4048   -5.7643    9.8883 C.3       1 <0>         0.0173
     33 C25        -2.1843   -5.4413   11.1646 C.3       1 <0>        -0.2139
     34 C26        -2.4066   -3.9657   11.5022 C.3       1 <0>        -0.1664
     35 C27        -1.4142   -4.7960   12.3185 C.3       1 <0>        -0.1460
     36 F1         -4.6249    0.3344    5.0634 F         1 <0>        -0.1318
     37 C28        -4.4408   -2.7815   -2.8048 C.3       1 <0>        -0.0809
     38 H1         -3.5561   -3.0138    0.4357 H         1 <0>         0.0605
     39 H2         -3.0129   -3.8393   -1.0447 H         1 <0>         0.0654
     40 H3         -1.8192   -3.1176    0.0609 H         1 <0>         0.0610
     41 H4         -0.9262   -1.6353    0.6458 H         1 <0>         0.0770
     42 H5         -0.5970    0.1090    0.5146 H         1 <0>         0.0874
     43 H6         -2.1156    1.7339    1.5977 H         1 <0>         0.1468
     44 H7         -3.5308    2.1671    3.5605 H         1 <0>         0.1436
     45 H8         -2.5578   -2.4678    2.1674 H         1 <0>         0.1362
     46 H9         -1.5007   -4.0054    3.9955 H         1 <0>         0.0840
     47 H10        -1.6093   -2.2418    4.2347 H         1 <0>         0.1173
     48 H11        -0.1279   -3.4756    5.9200 H         1 <0>         0.1171
     49 H12        -1.4211   -2.4801    6.6381 H         1 <0>         0.0887
     50 H13        -3.4660   -5.6399    7.2698 H         1 <0>         0.0762
     51 H14        -3.5746   -3.8763    7.5089 H         1 <0>         0.0998
     52 H15        -4.9465   -4.4016    5.5926 H         1 <0>         0.1176
     53 H16        -3.6571   -5.4010    4.8730 H         1 <0>         0.0808
     54 H17         0.4667   -7.6043    7.4084 H         1 <0>         0.1267
     55 H18        -0.1370   -7.7646    9.0876 H         1 <0>         0.0942
     56 H19        -0.2439   -9.9047    7.4511 H         1 <0>         0.0973
     57 H20        -1.6617   -9.5336    8.4869 H         1 <0>         0.0772
     58 H21        -1.2264   -8.8336    5.5312 H         1 <0>         0.0881
     59 H22        -2.6584   -9.5954    6.2919 H         1 <0>         0.0929
     60 H23        -3.4612   -7.5618    7.1074 H         1 <0>         0.0983
     61 H24        -2.4832   -6.8785    5.7779 H         1 <0>         0.1094
     62 H25        -3.0728   -5.9035    8.7210 H         1 <0>         0.4231
     63 H26        -0.5461   -6.3887   10.1352 H         1 <0>         0.1413
     64 H27        -1.0603   -4.8379    9.4287 H         1 <0>         0.1290
     65 H28        -2.9796   -6.1417   11.4197 H         1 <0>         0.1284
     66 H29        -1.9976   -3.2250   10.8150 H         1 <0>         0.1058
     67 H30        -3.3485   -3.6949   11.9794 H         1 <0>         0.1124
     68 H31        -1.7031   -5.0716   13.3327 H         1 <0>         0.1140
     69 H32        -0.3522   -4.6017   12.1683 H         1 <0>         0.1082
     70 H33        -5.4388   -2.7901   -2.3667 H         1 <0>         0.0522
     71 H34        -4.5206   -2.7040   -3.8891 H         1 <0>         0.0673
     72 H35        -3.9214   -3.7035   -2.5436 H         1 <0>         0.0482
     73 H36        -2.5969   -7.3390    9.3750 H         1 <0>         0.4329
@<TRIPOS>BOND
     1    1    2 1
     2    1   38 1
     3    1   39 1
     4    1   40 1
     5    2    8 ar
     6    2    3 ar
     7    3    4 ar
     8    3   37 1
     9    4    5 1
    10    4    6 ar
    11    6    7 ar
    12    7    8 ar
    13    8    9 1
    14    9   10 1
    15    9   41 1
    16    9   42 1
    17   10   15 ar
    18   10   11 ar
    19   11   12 ar
    20   11   43 1
    21   12   13 ar
    22   12   44 1
    23   13   14 ar
    24   13   36 1
    25   14   15 ar
    26   14   16 1
    27   15   45 1
    28   16   17 2
    29   16   18 am
    30   18   23 1
    31   18   19 1
    32   19   20 1
    33   19   46 1
    34   19   47 1
    35   20   21 1
    36   20   48 1
    37   20   49 1
    38   21   22 1
    39   21   24 am
    40   22   23 1
    41   22   50 1
    42   22   51 1
    43   23   52 1
    44   23   53 1
    45   24   25 2
    46   24   26 1
    47   26   30 1
    48   26   27 1
    49   26   31 1
    50   27   28 1
    51   27   54 1
    52   27   55 1
    53   28   29 1
    54   28   56 1
    55   28   57 1
    56   29   30 1
    57   29   58 1
    58   29   59 1
    59   30   60 1
    60   30   61 1
    61   31   32 1
    62   31   62 1
    63   31   73 1
    64   32   33 1
    65   32   63 1
    66   32   64 1
    67   33   35 1
    68   33   34 1
    69   33   65 1
    70   34   35 1
    71   34   66 1
    72   34   67 1
    73   35   68 1
    74   35   69 1
    75   37   70 1
    76   37   71 1
    77   37   72 1
@<TRIPOS>MOLECULE
CHEMBL598543
   59    62     0     0     0
SMALL
USER_CHARGES

@<TRIPOS>ATOM
      1 C1          4.7314    1.6762   -3.0404 C.3       1 <0>        -0.1277
      2 C2          3.9098    0.5512   -2.4079 C.3       1 <0>        -0.0862
      3 C3          4.4409    0.2596   -1.0030 C.3       1 <0>        -0.1576
      4 C4          2.4431    0.9780   -2.3203 C.3       1 <0>        -0.1584
      5 C5          4.0220   -0.6902   -3.2550 C.2       1 <0>         0.5281
      6 O1          4.7446   -0.6963   -4.2291 O.2       1 <0>        -0.5325
      7 N1          3.3194   -1.7935   -2.9301 N.am      1 <0>        -0.6118
      8 C6          2.5458   -1.8469   -1.6818 C.3       1 <0>         0.0671
      9 C7          1.0915   -2.1965   -2.0211 C.3       1 <0>         0.0948
     10 N2          1.0849   -3.3674   -2.9091 N.am      1 <0>        -0.6054
     11 C8          1.8585   -3.3140   -4.1575 C.3       1 <0>         0.0841
     12 C9          3.3083   -2.9624   -3.8209 C.3       1 <0>         0.0959
     13 C10         0.3823   -4.4707   -2.5843 C.2       1 <0>         0.5661
     14 O2         -0.3187   -4.4744   -1.5910 O.2       1 <0>        -0.5154
     15 C11         0.4639   -5.6753   -3.4349 C.ar      1 <0>        -0.1611
     16 C12         0.2031   -5.5866   -4.8041 C.ar      1 <0>        -0.0579
     17 C13         0.2815   -6.7146   -5.5926 C.ar      1 <0>        -0.1010
     18 C14         0.6175   -7.9350   -5.0316 C.ar      1 <0>        -0.0769
     19 C15         0.8770   -8.0333   -3.6777 C.ar      1 <0>        -0.1477
     20 C16         0.8084   -6.9092   -2.8746 C.ar      1 <0>         0.1514
     21 F1          1.0676   -7.0043   -1.5521 F         1 <0>        -0.1220
     22 C17         0.0001   -6.6192   -7.0700 C.3       1 <0>        -0.0390
     23 C18        -1.4796   -6.7734   -7.3106 C.2       1 <0>         0.0065
     24 C19        -2.2587   -5.7022   -7.2841 C.2       1 <0>         0.0987
     25 N3         -3.6249   -5.7841   -7.4981 N.am      1 <0>        -0.6434
     26 H1         -4.1667   -4.9799   -7.4722 H         1 <0>         0.4273
     27 C20        -4.2058   -6.9787   -7.7432 C.2       1 <0>         0.5823
     28 O3         -5.4064   -7.0595   -7.9329 O.2       1 <0>        -0.4967
     29 C21        -3.3620   -8.1732   -7.7765 C.2       1 <0>        -0.0367
     30 N4         -2.0033   -8.0372   -7.5622 N.pl3     1 <0>        -0.3378
     31 C22        -1.4340   -9.2647   -7.6468 C.2       1 <0>         0.0919
     32 C23        -2.4002  -10.1816   -7.9162 C.2       1 <0>        -0.0832
     33 C24        -3.6228   -9.5086   -7.9926 C.2       1 <0>        -0.0752
     34 Cl1        -2.1602  -11.8893   -8.1163 Cl        1 <0>        -0.0109
     35 Cl2         0.2554   -9.6092   -7.4447 Cl        1 <0>         0.0213
     36 H2          5.7763    1.3722   -3.1028 H         1 <0>         0.0636
     37 H3          4.3531    1.8839   -4.0413 H         1 <0>         0.0618
     38 H4          4.6503    2.5741   -2.4277 H         1 <0>         0.0641
     39 H5          4.3678    1.1599   -0.3929 H         1 <0>         0.0732
     40 H6          3.8500   -0.5359   -0.5490 H         1 <0>         0.0709
     41 H7          5.4832   -0.0528   -1.0662 H         1 <0>         0.0639
     42 H8          2.0592    1.1668   -3.3228 H         1 <0>         0.0626
     43 H9          1.8611    0.1843   -1.8519 H         1 <0>         0.0718
     44 H10         2.3642    1.8868   -1.7238 H         1 <0>         0.0728
     45 H11         2.9622   -2.6113   -1.0257 H         1 <0>         0.0775
     46 H12         2.5828   -0.8766   -1.1866 H         1 <0>         0.1282
     47 H13         0.5479   -2.4288   -1.1053 H         1 <0>         0.1087
     48 H14         0.6204   -1.3525   -2.5250 H         1 <0>         0.0789
     49 H15         1.8215   -4.2843   -4.6526 H         1 <0>         0.1051
     50 H16         1.4421   -2.5496   -4.8135 H         1 <0>         0.0802
     51 H17         3.8488   -2.7285   -4.7381 H         1 <0>         0.1075
     52 H18         3.7803   -3.8080   -3.3207 H         1 <0>         0.0731
     53 H19        -0.0599   -4.6360   -5.2442 H         1 <0>         0.1396
     54 H20         0.6768   -8.8148   -5.6552 H         1 <0>         0.1460
     55 H21         1.1378   -8.9886   -3.2468 H         1 <0>         0.1472
     56 H22         0.3292   -5.6484   -7.4406 H         1 <0>         0.1112
     57 H23         0.5377   -7.4094   -7.5941 H         1 <0>         0.1037
     58 H24        -1.8157   -4.7367   -7.0896 H         1 <0>         0.1830
     59 H25        -4.5876   -9.9503   -8.1942 H         1 <0>         0.1744
@<TRIPOS>BOND
     1    1    2 1
     2    1   36 1
     3    1   37 1
     4    1   38 1
     5    2    3 1
     6    2    4 1
     7    2    5 1
     8    3   39 1
     9    3   40 1
    10    3   41 1
    11    4   42 1
    12    4   43 1
    13    4   44 1
    14    5    6 2
    15    5    7 am
    16    7   12 1
    17    7    8 1
    18    8    9 1
    19    8   45 1
    20    8   46 1
    21    9   10 1
    22    9   47 1
    23    9   48 1
    24   10   11 1
    25   10   13 am
    26   11   12 1
    27   11   49 1
    28   11   50 1
    29   12   51 1
    30   12   52 1
    31   13   14 2
    32   13   15 1
    33   15   20 ar
    34   15   16 ar
    35   16   17 ar
    36   16   53 1
    37   17   18 ar
    38   17   22 1
    39   18   19 ar
    40   18   54 1
    41   19   20 ar
    42   19   55 1
    43   20   21 1
    44   22   23 1
    45   22   56 1
    46   22   57 1
    47   23   30 1
    48   23   24 2
    49   24   25 1
    50   24   58 1
    51   25   26 1
    52   25   27 am
    53   27   28 2
    54   27   29 1
    55   29   33 2
    56   29   30 1
    57   30   31 1
    58   31   32 2
    59   31   35 1
    60   32   33 1
    61   32   34 1
    62   33   59 1
@<TRIPOS>MOLECULE
CHEMBL598544
   60    64     0     0     0
SMALL
USER_CHARGES

@<TRIPOS>ATOM
      1 C1         -0.0963    1.7102    0.1684 C.ar      1 <0>        -0.0550
      2 C2          0.7633    1.8185   -0.9089 C.ar      1 <0>        -0.1487
      3 C3          1.9370    1.0878   -0.9363 C.ar      1 <0>         0.1545
      4 C4          2.2516    0.2387    0.1296 C.ar      1 <0>        -0.1601
      5 C5          1.3769    0.1363    1.2130 C.ar      1 <0>        -0.0603
      6 C6          0.2103    0.8714    1.2259 C.ar      1 <0>        -0.1073
      7 C7         -0.7338    0.7614    2.3954 C.3       1 <0>        -0.0286
      8 C8         -1.6531   -0.4149    2.1900 C.2       1 <0>         0.0129
      9 C9         -1.4698   -1.2101    1.1463 C.2       1 <0>         0.0842
     10 N1         -2.2835   -2.3055    0.9076 N.am      1 <0>        -0.6438
     11 H1         -2.1217   -2.8677    0.1339 H         1 <0>         0.4253
     12 C10        -3.3011   -2.5944    1.7476 C.2       1 <0>         0.5828
     13 O1         -4.0211   -3.5559    1.5453 O.2       1 <0>        -0.4964
     14 C11        -3.5195   -1.7280    2.9059 C.2       1 <0>        -0.0403
     15 N2         -2.6761   -0.6507    3.1026 N.pl3     1 <0>        -0.3429
     16 C12        -3.0648   -0.0059    4.2300 C.2       1 <0>         0.0962
     17 C13        -4.1359   -0.6521    4.7610 C.2       1 <0>        -0.0865
     18 C14        -4.4391   -1.7357    3.9318 C.2       1 <0>        -0.0733
     19 Cl1        -4.9862   -0.2029    6.2063 Cl        1 <0>        -0.0113
     20 Cl2        -2.3151    1.4144    4.8892 Cl        1 <0>         0.0143
     21 C15         3.5027   -0.5460    0.1090 C.2       1 <0>         0.5646
     22 O2          4.5701    0.0157   -0.0428 O.2       1 <0>        -0.5117
     23 N3          3.4609   -1.8848    0.2585 N.am      1 <0>        -0.6048
     24 C16         2.1875   -2.5683    0.5252 C.3       1 <0>         0.0831
     25 C17         1.9790   -3.6499   -0.5420 C.3       1 <0>         0.0899
     26 N4          3.2060   -4.4525   -0.6432 N.am      1 <0>        -0.6147
     27 C18         4.4794   -3.7690   -0.9098 C.3       1 <0>         0.0969
     28 C19         4.6871   -2.6879    0.1518 C.3       1 <0>         0.0990
     29 C20         3.1643   -5.7913   -0.4937 C.2       1 <0>         0.5244
     30 O3          4.1935   -6.4328   -0.4846 O.2       1 <0>        -0.5293
     31 C21         1.8388   -6.4911   -0.3378 C.3       1 <0>        -0.1149
     32 C22         1.0534   -6.4682   -1.6727 C.3       1 <0>        -0.1123
     33 C23         0.0959   -7.6769   -1.5267 C.3       1 <0>        -0.1239
     34 C24         0.9429   -8.7455   -0.8053 C.3       1 <0>        -0.1258
     35 C25         2.0510   -7.9916   -0.0495 C.3       1 <0>        -0.1140
     36 F1          2.7767    1.1935   -1.9893 F         1 <0>        -0.1197
     37 H2         -1.0096    2.2864    0.1870 H         1 <0>         0.1448
     38 H3          0.5176    2.4747   -1.7308 H         1 <0>         0.1503
     39 H4          1.6134   -0.5177    2.0393 H         1 <0>         0.1433
     40 H5         -0.1616    0.6197    3.3122 H         1 <0>         0.1022
     41 H6         -1.3240    1.6745    2.4730 H         1 <0>         0.1032
     42 H7         -0.6624   -0.9979    0.4612 H         1 <0>         0.1790
     43 H8         -5.2362   -2.4503    4.0745 H         1 <0>         0.1738
     44 H9          2.2196   -3.0296    1.5122 H         1 <0>         0.0827
     45 H10         1.3699   -1.8487    0.4814 H         1 <0>         0.0973
     46 H11         1.1453   -4.2908   -0.2552 H         1 <0>         0.1020
     47 H12         1.7689   -3.1801   -1.5028 H         1 <0>         0.0785
     48 H13         5.2970   -4.4885   -0.8660 H         1 <0>         0.1096
     49 H14         4.4473   -3.3076   -1.8969 H         1 <0>         0.0746
     50 H15         5.5198   -2.0474   -0.1386 H         1 <0>         0.1090
     51 H16         4.9013   -3.1580    1.1116 H         1 <0>         0.0783
     52 H17         1.2554   -6.0284    0.4582 H         1 <0>         0.0984
     53 H18         0.4911   -5.5400   -1.7742 H         1 <0>         0.0717
     54 H19         1.7259   -6.6082   -2.5190 H         1 <0>         0.0730
     55 H20        -0.7709   -7.4062   -0.9237 H         1 <0>         0.0699
     56 H21        -0.2173   -8.0361   -2.5070 H         1 <0>         0.0704
     57 H22         0.3228   -9.3013   -0.1020 H         1 <0>         0.0669
     58 H23         1.3842   -9.4262   -1.5334 H         1 <0>         0.0664
     59 H24         3.0301   -8.3064   -0.4107 H         1 <0>         0.0852
     60 H25         1.9687   -8.1814    1.0207 H         1 <0>         0.0675
@<TRIPOS>BOND
     1    1    6 ar
     2    1    2 ar
     3    1   37 1
     4    2    3 ar
     5    2   38 1
     6    3    4 ar
     7    3   36 1
     8    4    5 ar
     9    4   21 1
    10    5    6 ar
    11    5   39 1
    12    6    7 1
    13    7    8 1
    14    7   40 1
    15    7   41 1
    16    8   15 1
    17    8    9 2
    18    9   10 1
    19    9   42 1
    20   10   11 1
    21   10   12 am
    22   12   13 2
    23   12   14 1
    24   14   18 2
    25   14   15 1
    26   15   16 1
    27   16   17 2
    28   16   20 1
    29   17   18 1
    30   17   19 1
    31   18   43 1
    32   21   22 2
    33   21   23 am
    34   23   28 1
    35   23   24 1
    36   24   25 1
    37   24   44 1
    38   24   45 1
    39   25   26 1
    40   25   46 1
    41   25   47 1
    42   26   27 1
    43   26   29 am
    44   27   28 1
    45   27   48 1
    46   27   49 1
    47   28   50 1
    48   28   51 1
    49   29   30 2
    50   29   31 1
    51   31   35 1
    52   31   32 1
    53   31   52 1
    54   32   33 1
    55   32   53 1
    56   32   54 1
    57   33   34 1
    58   33   55 1
    59   33   56 1
    60   34   35 1
    61   34   57 1
    62   34   58 1
    63   35   59 1
    64   35   60 1
@<TRIPOS>MOLECULE
CHEMBL1171304
   53    57     0     0     0
SMALL
USER_CHARGES

@<TRIPOS>ATOM
      1 C1          5.3326   -2.9208    0.0691 C.ar      1 <0>        -0.1514
      2 C2          5.7793   -1.6051    0.0521 C.ar      1 <0>        -0.0571
      3 C3          4.8934   -0.5661    0.0128 C.ar      1 <0>        -0.1403
      4 C4          3.5244   -0.8228   -0.0107 C.ar      1 <0>         0.1528
      5 C5          3.0707   -2.1554    0.0065 C.ar      1 <0>        -0.1956
      6 C6          3.9969   -3.2018    0.0468 C.ar      1 <0>        -0.0552
      7 C7          1.6087   -2.0919   -0.0249 C.2       1 <0>         0.3484
      8 N1          1.2676   -0.8311   -0.0570 N.2       1 <0>        -0.2991
      9 N2          2.4106   -0.0252   -0.0495 N.pl3     1 <0>        -0.4979
     10 H1          2.4144    0.9446   -0.0684 H         1 <0>         0.4474
     11 N3          0.7353   -3.1829   -0.0218 N.pl3     1 <0>        -0.6084
     12 C8         -0.7179   -2.9882    0.0980 C.3       1 <0>         0.1084
     13 C9         -1.4074   -3.7762   -1.0207 C.3       1 <0>        -0.0206
     14 N4         -0.9774   -5.1791   -0.9666 N.4       1 <0>        -0.3774
     15 C10         0.4610   -5.2725   -1.2464 C.3       1 <0>        -0.0309
     16 C11         1.2427   -4.5583   -0.1445 C.3       1 <0>         0.0988
     17 C12        -1.7206   -5.9561   -1.9676 C.3       1 <0>        -0.0259
     18 C13        -1.3659   -7.4380   -1.8292 C.3       1 <0>         0.1196
     19 N5         -2.1070   -8.2128   -2.8275 N.pl3     1 <0>        -0.7132
     20 C14        -1.9493   -9.5742   -2.8947 C.2       1 <0>         0.6321
     21 N6         -2.6508  -10.2640   -3.8402 N.am      1 <0>        -0.6654
     22 H2         -3.2429   -9.7873   -4.4428 H         1 <0>         0.4150
     23 C15        -2.5271  -11.6075   -3.9444 C.2       1 <0>         0.5658
     24 O1         -3.1463  -12.2351   -4.7837 O.2       1 <0>        -0.4946
     25 C16        -1.6174  -12.2807   -3.0075 C.ar      1 <0>        -0.2200
     26 C17        -1.4207  -13.6606   -3.0341 C.ar      1 <0>        -0.0304
     27 C18        -0.5617  -14.2359   -2.1388 C.ar      1 <0>        -0.1454
     28 C19         0.1150  -13.4609   -1.2057 C.ar      1 <0>        -0.0593
     29 C20        -0.0596  -12.1065   -1.1574 C.ar      1 <0>        -0.1252
     30 C21        -0.9305  -11.4888   -2.0595 C.ar      1 <0>         0.1898
     31 N7         -1.1287  -10.1495   -2.0519 N.2       1 <0>        -0.5785
     32 H3          6.0489   -3.7287    0.0956 H         1 <0>         0.1326
     33 H4          6.8398   -1.4015    0.0705 H         1 <0>         0.1366
     34 H5          5.2535    0.4520    0.0003 H         1 <0>         0.1334
     35 H6          3.6576   -4.2270    0.0599 H         1 <0>         0.1261
     36 H7         -1.0578   -3.3541    1.0669 H         1 <0>         0.0923
     37 H8         -0.9549   -1.9288   -0.0004 H         1 <0>         0.1320
     38 H9         -2.4883   -3.7220   -0.8905 H         1 <0>         0.1450
     39 H10        -1.1357   -3.3497   -1.9863 H         1 <0>         0.1353
     40 H11         0.7570   -6.3209   -1.2825 H         1 <0>         0.1490
     41 H12         0.6761   -4.8007   -2.2052 H         1 <0>         0.1368
     42 H13         2.3013   -4.5365   -0.4032 H         1 <0>         0.1351
     43 H14         1.1041   -5.0854    0.7994 H         1 <0>         0.0961
     44 H15        -2.7908   -5.8224   -1.8101 H         1 <0>         0.1412
     45 H16        -1.4544   -5.6106   -2.9666 H         1 <0>         0.1382
     46 H17        -0.2956   -7.5716   -1.9868 H         1 <0>         0.0958
     47 H18        -1.6320   -7.7835   -0.8303 H         1 <0>         0.0971
     48 H19        -2.7091   -7.7634   -3.4410 H         1 <0>         0.4171
     49 H20        -1.9431  -14.2708   -3.7560 H         1 <0>         0.1387
     50 H21        -0.4081  -15.3047   -2.1574 H         1 <0>         0.1356
     51 H22         0.7887  -13.9357   -0.5079 H         1 <0>         0.1359
     52 H23         0.4732  -11.5163   -0.4265 H         1 <0>         0.1367
     53 H24        -1.1650   -5.5520   -0.0480 H         1 <0>         0.4271
@<TRIPOS>BOND
     1    1    6 ar
     2    1    2 ar
     3    1   32 1
     4    2    3 ar
     5    2   33 1
     6    3    4 ar
     7    3   34 1
     8    4    9 1
     9    4    5 ar
    10    5    6 ar
    11    5    7 1
    12    6   35 1
    13    7    8 2
    14    7   11 1
    15    8    9 1
    16    9   10 1
    17   11   16 1
    18   11   12 1
    19   12   13 1
    20   12   36 1
    21   12   37 1
    22   13   14 1
    23   13   38 1
    24   13   39 1
    25   14   15 1
    26   14   17 1
    27   14   53 1
    28   15   16 1
    29   15   40 1
    30   15   41 1
    31   16   42 1
    32   16   43 1
    33   17   18 1
    34   17   44 1
    35   17   45 1
    36   18   19 1
    37   18   46 1
    38   18   47 1
    39   19   20 1
    40   19   48 1
    41   20   31 2
    42   20   21 1
    43   21   22 1
    44   21   23 am
    45   23   24 2
    46   23   25 1
    47   25   30 ar
    48   25   26 ar
    49   26   27 ar
    50   26   49 1
    51   27   28 ar
    52   27   50 1
    53   28   29 ar
    54   28   51 1
    55   29   30 ar
    56   29   52 1
    57   30   31 1
@<TRIPOS>MOLECULE
CHEMBL1171304__1
   52    56     0     0     0
SMALL
USER_CHARGES

@<TRIPOS>ATOM
      1 C1          0.0525    1.3077    0.7399 C.ar      1 <0>        -0.1674
      2 C2          1.2292    2.0388    0.6314 C.ar      1 <0>        -0.0619
      3 C3          2.4105    1.4223    0.3306 C.ar      1 <0>        -0.1506
      4 C4          2.4417    0.0442    0.1290 C.ar      1 <0>         0.1517
      5 C5          1.2501   -0.6974    0.2386 C.ar      1 <0>        -0.1954
      6 C6          0.0535   -0.0437    0.5475 C.ar      1 <0>        -0.0439
      7 C7          1.6087   -2.0919   -0.0249 C.2       1 <0>         0.3662
      8 N1          2.8927   -2.1326   -0.2626 N.2       1 <0>        -0.3204
      9 N2          3.4367   -0.8469   -0.1777 N.pl3     1 <0>        -0.5080
     10 H1          4.3702   -0.6217   -0.3146 H         1 <0>         0.4406
     11 N3          0.7353   -3.1829   -0.0218 N.pl3     1 <0>        -0.5957
     12 C8         -0.7174   -2.9867    0.0981 C.3       1 <0>         0.1260
     13 C9         -1.4078   -3.7585   -1.0314 C.3       1 <0>         0.0411
     14 N4         -0.9659   -5.1592   -1.0044 N.3       1 <0>        -0.5296
     15 C10         0.4769   -5.2678   -1.2587 C.3       1 <0>         0.0342
     16 C11         1.2440   -4.5575   -0.1446 C.3       1 <0>         0.1348
     17 C12        -1.7314   -5.9713   -1.9596 C.3       1 <0>         0.0415
     18 C13        -1.4243   -7.4526   -1.7307 C.3       1 <0>         0.1416
     19 N5         -2.1877   -8.2624   -2.6834 N.pl3     1 <0>        -0.7071
     20 C14        -2.0734   -9.6297   -2.6677 C.2       1 <0>         0.6367
     21 N6         -2.7946  -10.3528   -3.5726 N.am      1 <0>        -0.6681
     22 H2         -3.3700   -9.8949   -4.2052 H         1 <0>         0.4129
     23 C15        -2.7135  -11.7034   -3.5952 C.2       1 <0>         0.5681
     24 O1         -3.3508  -12.3606   -4.3975 O.2       1 <0>        -0.5102
     25 C16        -1.8276  -12.3472   -2.6159 C.ar      1 <0>        -0.2330
     26 C17        -1.6750  -13.7318   -2.5584 C.ar      1 <0>        -0.0289
     27 C18        -0.8365  -14.2789   -1.6268 C.ar      1 <0>        -0.1597
     28 C19        -0.1373  -13.4707   -0.7395 C.ar      1 <0>        -0.0603
     29 C20        -0.2687  -12.1111   -0.7736 C.ar      1 <0>        -0.1304
     30 C21        -1.1178  -11.5217   -1.7146 C.ar      1 <0>         0.2066
     31 N7         -1.2732  -10.1788   -1.7886 N.2       1 <0>        -0.5816
     32 H3         -0.8706    1.8128    0.9830 H         1 <0>         0.1270
     33 H4          1.2095    3.1074    0.7866 H         1 <0>         0.1296
     34 H5          3.3180    2.0020    0.2489 H         1 <0>         0.1268
     35 H6         -0.8651   -0.6051    0.6338 H         1 <0>         0.1298
     36 H7         -1.0595   -3.3640    1.0618 H         1 <0>         0.0770
     37 H8         -0.9518   -1.9256    0.0131 H         1 <0>         0.0944
     38 H9         -2.4882   -3.7153   -0.8940 H         1 <0>         0.0909
     39 H10        -1.1445   -3.3125   -1.9905 H         1 <0>         0.0416
     40 H11         0.7633   -6.3192   -1.2861 H         1 <0>         0.0937
     41 H12         0.7139   -4.8008   -2.2146 H         1 <0>         0.0408
     42 H13         2.3058   -4.5344   -0.3900 H         1 <0>         0.0915
     43 H14         1.0941   -5.0887    0.7953 H         1 <0>         0.0736
     44 H15        -2.7971   -5.7945   -1.8146 H         1 <0>         0.0848
     45 H16        -1.4524   -5.6953   -2.9765 H         1 <0>         0.0423
     46 H17        -0.3586   -7.6294   -1.8758 H         1 <0>         0.0767
     47 H18        -1.7033   -7.7285   -0.7138 H         1 <0>         0.0875
     48 H19        -2.7741   -7.8321   -3.3252 H         1 <0>         0.4100
     49 H20        -2.2151  -14.3676   -3.2443 H         1 <0>         0.1338
     50 H21        -0.7169  -15.3512   -1.5802 H         1 <0>         0.1298
     51 H22         0.5196  -13.9237   -0.0117 H         1 <0>         0.1314
     52 H23         0.2811  -11.4950   -0.0775 H         1 <0>         0.1370
@<TRIPOS>BOND
     1    1    6 ar
     2    1    2 ar
     3    1   32 1
     4    2    3 ar
     5    2   33 1
     6    3    4 ar
     7    3   34 1
     8    4    9 1
     9    4    5 ar
    10    5    6 ar
    11    5    7 1
    12    6   35 1
    13    7    8 2
    14    7   11 1
    15    8    9 1
    16    9   10 1
    17   11   16 1
    18   11   12 1
    19   12   13 1
    20   12   36 1
    21   12   37 1
    22   13   14 1
    23   13   38 1
    24   13   39 1
    25   14   15 1
    26   14   17 1
    27   15   16 1
    28   15   40 1
    29   15   41 1
    30   16   42 1
    31   16   43 1
    32   17   18 1
    33   17   44 1
    34   17   45 1
    35   18   19 1
    36   18   46 1
    37   18   47 1
    38   19   20 1
    39   19   48 1
    40   20   31 2
    41   20   21 1
    42   21   22 1
    43   21   23 am
    44   23   24 2
    45   23   25 1
    46   25   30 ar
    47   25   26 ar
    48   26   27 ar
    49   26   49 1
    50   27   28 ar
    51   27   50 1
    52   28   29 ar
    53   28   51 1
    54   29   30 ar
    55   29   52 1
    56   30   31 1
@<TRIPOS>MOLECULE
CHEMBL598751
   56    60     0     0     0
SMALL
USER_CHARGES

@<TRIPOS>ATOM
      1 C1          2.0755   -3.1723   -8.8850 C.ar      1 <0>        -0.0772
      2 C2          2.6976   -1.9718   -8.5791 C.ar      1 <0>        -0.1448
      3 C3          3.5843   -1.9178   -7.5158 C.ar      1 <0>         0.0950
      4 N1          3.8417   -2.9881   -6.7960 N.ar      1 <0>        -0.4541
      5 C4          3.2677   -4.1562   -7.0554 C.ar      1 <0>         0.0749
      6 C5          2.3658   -4.2836   -8.1095 C.ar      1 <0>        -0.1084
      7 C6          3.5888   -5.3348   -6.2168 C.2       1 <0>         0.5756
      8 O1          3.2873   -6.4497   -6.5947 O.2       1 <0>        -0.5287
      9 N2          4.2152   -5.1704   -5.0348 N.am      1 <0>        -0.5943
     10 C7          4.4321   -3.8252   -4.4840 C.3       1 <0>         0.0687
     11 C8          3.8294   -3.7697   -3.0748 C.3       1 <0>         0.0957
     12 N3          4.3073   -4.9323   -2.3135 N.am      1 <0>        -0.6063
     13 C9          4.0905   -6.2775   -2.8643 C.3       1 <0>         0.0837
     14 C10         4.6882   -6.3333   -4.2708 C.3       1 <0>         0.0946
     15 C11         4.9337   -4.7679   -1.1315 C.2       1 <0>         0.5645
     16 O2          5.0402   -3.6570   -0.6494 O.2       1 <0>        -0.5161
     17 C12         5.4908   -5.9373   -0.4220 C.ar      1 <0>        -0.1596
     18 C13         4.6895   -7.0533   -0.1712 C.ar      1 <0>        -0.0597
     19 C14         5.2157   -8.1418    0.4911 C.ar      1 <0>        -0.0999
     20 C15         6.5358   -8.1320    0.9088 C.ar      1 <0>        -0.0647
     21 C16         7.3367   -7.0322    0.6658 C.ar      1 <0>        -0.1480
     22 C17         6.8249   -5.9350   -0.0031 C.ar      1 <0>         0.1524
     23 F1          7.6095   -4.8623   -0.2455 F         1 <0>        -0.1210
     24 C18         4.3513   -9.3461    0.7618 C.3       1 <0>        -0.0433
     25 C19         3.5642   -9.1252    2.0278 C.2       1 <0>         0.0075
     26 C20         2.4492   -8.4111    1.9851 C.2       1 <0>         0.0980
     27 N4          1.6857   -8.1758    3.1168 N.am      1 <0>        -0.6433
     28 H1          0.8741   -7.6487    3.0507 H         1 <0>         0.4271
     29 C21         2.0663   -8.6773    4.3119 C.2       1 <0>         0.5823
     30 O3          1.4005   -8.4754    5.3119 O.2       1 <0>        -0.4972
     31 C22         3.2948   -9.4685    4.3793 C.2       1 <0>        -0.0375
     32 N5          4.0179   -9.6792    3.2204 N.pl3     1 <0>        -0.3384
     33 C23         5.0999  -10.4370    3.5254 C.2       1 <0>         0.0933
     34 C24         5.0803  -10.7195    4.8546 C.2       1 <0>        -0.0841
     35 C25         3.9516  -10.1081    5.4078 C.2       1 <0>        -0.0752
     36 Cl1         6.2568  -11.6616    5.7159 Cl        1 <0>        -0.0114
     37 Cl2         6.3133  -10.9622    2.4004 Cl        1 <0>         0.0170
     38 H2          1.3771   -3.2390   -9.7061 H         1 <0>         0.1454
     39 H3          2.4933   -1.0872   -9.1642 H         1 <0>         0.1440
     40 H4          4.0709   -0.9843   -7.2750 H         1 <0>         0.1674
     41 H5          1.8992   -5.2347   -8.3191 H         1 <0>         0.1491
     42 H6          5.5011   -3.6188   -4.4331 H         1 <0>         0.0741
     43 H7          3.9442   -3.0865   -5.1199 H         1 <0>         0.1523
     44 H8          4.1448   -2.8522   -2.5779 H         1 <0>         0.1071
     45 H9          2.7417   -3.7976   -3.1408 H         1 <0>         0.0729
     46 H10         4.5783   -7.0162   -2.2284 H         1 <0>         0.1056
     47 H11         3.0214   -6.4839   -2.9152 H         1 <0>         0.0806
     48 H12         4.3694   -7.2506   -4.7660 H         1 <0>         0.1088
     49 H13         5.7759   -6.3096   -4.2043 H         1 <0>         0.0767
     50 H14         3.6593   -7.0634   -0.4953 H         1 <0>         0.1397
     51 H15         6.9415   -8.9880    1.4274 H         1 <0>         0.1388
     52 H16         8.3653   -7.0312    0.9951 H         1 <0>         0.1477
     53 H17         3.6646   -9.4952   -0.0715 H         1 <0>         0.1109
     54 H18         4.9819  -10.2279    0.8752 H         1 <0>         0.1058
     55 H19         2.1260   -8.0000    1.0402 H         1 <0>         0.1818
     56 H20         3.6461  -10.1405    6.4432 H         1 <0>         0.1740
@<TRIPOS>BOND
     1    1    6 ar
     2    1    2 ar
     3    1   38 1
     4    2    3 ar
     5    2   39 1
     6    3    4 ar
     7    3   40 1
     8    4    5 ar
     9    5    6 ar
    10    5    7 1
    11    6   41 1
    12    7    8 2
    13    7    9 am
    14    9   14 1
    15    9   10 1
    16   10   11 1
    17   10   42 1
    18   10   43 1
    19   11   12 1
    20   11   44 1
    21   11   45 1
    22   12   13 1
    23   12   15 am
    24   13   14 1
    25   13   46 1
    26   13   47 1
    27   14   48 1
    28   14   49 1
    29   15   16 2
    30   15   17 1
    31   17   22 ar
    32   17   18 ar
    33   18   19 ar
    34   18   50 1
    35   19   20 ar
    36   19   24 1
    37   20   21 ar
    38   20   51 1
    39   21   22 ar
    40   21   52 1
    41   22   23 1
    42   24   25 1
    43   24   53 1
    44   24   54 1
    45   25   32 1
    46   25   26 2
    47   26   27 1
    48   26   55 1
    49   27   28 1
    50   27   29 am
    51   29   30 2
    52   29   31 1
    53   31   35 2
    54   31   32 1
    55   32   33 1
    56   33   34 2
    57   33   37 1
    58   34   35 1
    59   34   36 1
    60   35   56 1
@<TRIPOS>MOLECULE
CHEMBL603457
   54    58     0     0     0
SMALL
USER_CHARGES

@<TRIPOS>ATOM
      1 C1         -0.3250    1.2506    0.5066 C.ar      1 <0>        -0.0554
      2 C2          0.8246    2.0131    0.4167 C.ar      1 <0>        -0.1491
      3 C3          2.0599    1.3981    0.3272 C.ar      1 <0>         0.1544
      4 C4          2.1424    0.0019    0.3279 C.ar      1 <0>        -0.1591
      5 C5          0.9755   -0.7593    0.4191 C.ar      1 <0>        -0.0594
      6 C6         -0.2491   -0.1314    0.5077 C.ar      1 <0>        -0.1075
      7 C7         -1.5087   -0.9527    0.6067 C.3       1 <0>        -0.0275
      8 C8         -1.9717   -1.3311   -0.7766 C.2       1 <0>         0.0077
      9 C9         -1.2235   -1.0144   -1.8230 C.2       1 <0>         0.0899
     10 N1         -1.5988   -1.3366   -3.1169 N.am      1 <0>        -0.6412
     11 H1         -1.0274   -1.0902   -3.8610 H         1 <0>         0.4276
     12 C10        -2.7568   -1.9929   -3.3471 C.2       1 <0>         0.5829
     13 O1         -3.0941   -2.2804   -4.4817 O.2       1 <0>        -0.4974
     14 C11        -3.5967   -2.3513   -2.2043 C.2       1 <0>        -0.0394
     15 N2         -3.1746   -2.0119   -0.9327 N.pl3     1 <0>        -0.3412
     16 C12        -4.1022   -2.4483   -0.0455 C.2       1 <0>         0.0951
     17 C13        -5.1058   -3.0645   -0.7236 C.2       1 <0>        -0.0868
     18 C14        -4.8046   -3.0037   -2.0871 C.2       1 <0>        -0.0753
     19 Cl1        -6.5194   -3.7873   -0.0213 Cl        1 <0>        -0.0129
     20 Cl2        -4.0206   -2.2526    1.6775 Cl        1 <0>         0.0131
     21 C15         3.4572   -0.6639    0.2322 C.2       1 <0>         0.5644
     22 O2          4.3346   -0.3943    1.0294 O.2       1 <0>        -0.5146
     23 N3          3.6844   -1.5704   -0.7389 N.am      1 <0>        -0.6061
     24 C16         2.6079   -1.9695   -1.6564 C.3       1 <0>         0.0853
     25 C17         3.0809   -1.7387   -3.0969 C.3       1 <0>         0.0554
     26 N4          4.4098   -2.3454   -3.2577 N.am      1 <0>        -0.5885
     27 C18         5.4864   -1.9463   -2.3403 C.3       1 <0>         0.0984
     28 C19         5.0148   -2.1730   -0.9033 C.3       1 <0>         0.0996
     29 C20         4.6370   -3.2519   -4.2289 C.2       1 <0>         0.6083
     30 O3          5.7037   -3.8335   -4.2802 O.2       1 <0>        -0.5352
     31 C21         3.5925   -3.5383   -5.2288 C.2       1 <0>         0.1450
     32 N5          3.6385   -4.5233   -6.1751 N.pl3     1 <0>        -0.5203
     33 H2          4.3594   -5.1577   -6.3117 H         1 <0>         0.4331
     34 C22         2.4886   -4.4472   -6.8859 C.2       1 <0>        -0.0135
     35 C23         1.7645   -3.4254   -6.3670 C.2       1 <0>        -0.0262
     36 N6          2.4529   -2.8930   -5.3599 N.2       1 <0>        -0.4432
     37 F1          3.1832    2.1434    0.2389 F         1 <0>        -0.1200
     38 H3         -1.2871    1.7359    0.5808 H         1 <0>         0.1445
     39 H4          0.7578    3.0911    0.4160 H         1 <0>         0.1499
     40 H5          1.0318   -1.8378    0.4198 H         1 <0>         0.1431
     41 H6         -1.3090   -1.8563    1.1828 H         1 <0>         0.1013
     42 H7         -2.2846   -0.3696    1.1027 H         1 <0>         0.1024
     43 H8         -0.2935   -0.4891   -1.6626 H         1 <0>         0.1792
     44 H9         -5.4002   -3.4026   -2.8949 H         1 <0>         0.1732
     45 H10         2.3766   -3.0248   -1.5119 H         1 <0>         0.0791
     46 H11         1.7199   -1.3679   -1.4621 H         1 <0>         0.0965
     47 H12         2.3803   -2.2031   -3.7909 H         1 <0>         0.1613
     48 H13         3.1409   -0.6686   -3.2952 H         1 <0>         0.0746
     49 H14         6.3743   -2.5479   -2.5346 H         1 <0>         0.1109
     50 H15         5.7176   -0.8910   -2.4848 H         1 <0>         0.0803
     51 H16         5.7160   -1.7057   -0.2118 H         1 <0>         0.1108
     52 H17         4.9588   -3.2431   -0.7040 H         1 <0>         0.0786
     53 H18         2.2022   -5.0814   -7.7119 H         1 <0>         0.1906
     54 H19         0.7931   -3.1010   -6.7099 H         1 <0>         0.1835
@<TRIPOS>BOND
     1    1    6 ar
     2    1    2 ar
     3    1   38 1
     4    2    3 ar
     5    2   39 1
     6    3    4 ar
     7    3   37 1
     8    4    5 ar
     9    4   21 1
    10    5    6 ar
    11    5   40 1
    12    6    7 1
    13    7    8 1
    14    7   41 1
    15    7   42 1
    16    8   15 1
    17    8    9 2
    18    9   10 1
    19    9   43 1
    20   10   11 1
    21   10   12 am
    22   12   13 2
    23   12   14 1
    24   14   18 2
    25   14   15 1
    26   15   16 1
    27   16   17 2
    28   16   20 1
    29   17   18 1
    30   17   19 1
    31   18   44 1
    32   21   22 2
    33   21   23 am
    34   23   28 1
    35   23   24 1
    36   24   25 1
    37   24   45 1
    38   24   46 1
    39   25   26 1
    40   25   47 1
    41   25   48 1
    42   26   27 1
    43   26   29 am
    44   27   28 1
    45   27   49 1
    46   27   50 1
    47   28   51 1
    48   28   52 1
    49   29   30 2
    50   29   31 1
    51   31   36 2
    52   31   32 1
    53   32   33 1
    54   32   34 1
    55   34   35 2
    56   34   53 1
    57   35   36 1
    58   35   54 1
@<TRIPOS>MOLECULE
CHEMBL204862
   67    71     0     0     0
SMALL
USER_CHARGES

@<TRIPOS>ATOM
      1 C1          0.6887    0.8076   -2.6262 C.3       1 <0>         0.0265
      2 O1         -0.5484    1.1582   -3.2497 O.3       1 <0>        -0.3180
      3 C2         -1.6509    0.4584   -2.8706 C.ar      1 <0>         0.1143
      4 C3         -1.5430   -0.5404   -1.9140 C.ar      1 <0>        -0.1894
      5 C4         -2.6623   -1.2515   -1.5285 C.ar      1 <0>        -0.0758
      6 C5         -3.8959   -0.9662   -2.0982 C.ar      1 <0>         0.1214
      7 C6         -4.0032    0.0338   -3.0552 C.ar      1 <0>        -0.1042
      8 C7         -2.8840    0.7474   -3.4363 C.ar      1 <0>        -0.1333
      9 N1         -5.0321   -1.6878   -1.7077 N.am      1 <0>        -0.6836
     10 C8         -4.9286   -2.9980   -1.4090 C.2       1 <0>         0.7095
     11 O2         -3.8386   -3.5368   -1.4070 O.2       1 <0>        -0.5631
     12 N2         -6.0333   -3.7109   -1.1127 N.am      1 <0>        -0.6110
     13 C9         -5.9598   -5.0923   -0.7875 C.3       1 <0>         0.1312
     14 C10        -5.9299   -6.0515   -2.0220 C.3       1 <0>        -0.1500
     15 C11        -6.8946   -5.4540   -3.0978 C.3       1 <0>         0.1158
     16 N3         -8.0778   -4.8682   -2.5721 N.am      1 <0>        -0.5937
     17 C12        -8.0671   -3.3979   -2.3605 C.3       1 <0>         0.0804
     18 C13        -7.3810   -3.0859   -1.1055 C.3       1 <0>         0.0824
     19 C14        -9.1618   -5.6136   -2.2790 C.2       1 <0>         0.5639
     20 O3         -9.1111   -6.8242   -2.3755 O.2       1 <0>        -0.5183
     21 C15       -10.4125   -4.9587   -1.8401 C.ar      1 <0>        -0.1213
     22 C16       -11.6067   -5.2001   -2.5215 C.ar      1 <0>        -0.0691
     23 C17       -12.7702   -4.5863   -2.1066 C.ar      1 <0>        -0.1148
     24 C18       -12.7553   -3.7325   -1.0177 C.ar      1 <0>        -0.0822
     25 C19       -11.5752   -3.4890   -0.3380 C.ar      1 <0>        -0.0774
     26 C20       -10.4055   -4.1011   -0.7392 C.ar      1 <0>        -0.0846
     27 C21       -11.5683   -2.5573    0.8465 C.3       1 <0>        -0.0181
     28 C22       -11.8372   -3.3422    2.1046 C.2       1 <0>         0.1351
     29 C23       -11.8875   -2.6580    3.3968 C.ar      1 <0>        -0.0602
     30 C24       -11.6926   -1.2801    3.5091 C.ar      1 <0>        -0.0982
     31 C25       -11.7497   -0.6867    4.7392 C.ar      1 <0>        -0.0871
     32 C26       -11.9989   -1.4359    5.8820 C.ar      1 <0>        -0.1104
     33 C27       -12.1946   -2.7972    5.8017 C.ar      1 <0>        -0.0542
     34 C28       -12.1419   -3.4239    4.5574 C.ar      1 <0>        -0.1254
     35 C29       -12.3429   -4.8702    4.4052 C.2       1 <0>         0.5280
     36 N4        -12.2771   -5.4080    3.1694 N.am      1 <0>        -0.5333
     37 N5        -12.0296   -4.6260    2.0408 N.2       1 <0>        -0.2177
     38 O4        -12.5645   -5.5715    5.3762 O.2       1 <0>        -0.5197
     39 H1          1.4851    1.4405   -3.0178 H         1 <0>         0.1008
     40 H2          0.6063    0.9520   -1.5490 H         1 <0>         0.0558
     41 H3          0.9182   -0.2370   -2.8363 H         1 <0>         0.0562
     42 H4         -0.5834   -0.7622   -1.4709 H         1 <0>         0.1311
     43 H5         -2.5781   -2.0295   -0.7842 H         1 <0>         0.1419
     44 H6         -4.9625    0.2562   -3.4987 H         1 <0>         0.1318
     45 H7         -2.9682    1.5282   -4.1778 H         1 <0>         0.1353
     46 H8         -5.8930   -1.2443   -1.6524 H         1 <0>         0.4033
     47 H9         -5.0585   -5.2605   -0.1980 H         1 <0>         0.0757
     48 H10        -6.8225   -5.3484   -0.1724 H         1 <0>         0.0704
     49 H11        -4.9178   -6.1092   -2.4225 H         1 <0>         0.0815
     50 H12        -6.2708   -7.0444   -1.7286 H         1 <0>         0.0813
     51 H13        -6.3541   -4.6935   -3.6614 H         1 <0>         0.0715
     52 H14        -7.1798   -6.2500   -3.7856 H         1 <0>         0.0733
     53 H15        -7.5478   -2.9159   -3.1889 H         1 <0>         0.0867
     54 H16        -9.0923   -3.0308   -2.3129 H         1 <0>         0.1045
     55 H17        -7.9581   -3.4774   -0.2678 H         1 <0>         0.0895
     56 H18        -7.2793   -2.0056   -1.0019 H         1 <0>         0.0928
     57 H19       -11.6195   -5.8656   -3.3720 H         1 <0>         0.1285
     58 H20       -13.6947   -4.7721   -2.6329 H         1 <0>         0.1308
     59 H21       -13.6688   -3.2538   -0.6972 H         1 <0>         0.1264
     60 H22        -9.4857   -3.9134   -0.2052 H         1 <0>         0.1254
     61 H23       -10.5950   -2.0725    0.9218 H         1 <0>         0.1056
     62 H24       -12.3422   -1.8005    0.7180 H         1 <0>         0.1093
     63 H25       -11.4974   -0.6861    2.6286 H         1 <0>         0.1415
     64 H26       -11.5987    0.3793    4.8237 H         1 <0>         0.1367
     65 H27       -12.0392   -0.9460    6.8437 H         1 <0>         0.1376
     66 H28       -12.3879   -3.3735    6.6944 H         1 <0>         0.1435
     67 H29       -12.4091   -6.3630    3.0624 H         1 <0>         0.4373
@<TRIPOS>BOND
     1    1    2 1
     2    1   39 1
     3    1   40 1
     4    1   41 1
     5    2    3 1
     6    3    8 ar
     7    3    4 ar
     8    4    5 ar
     9    4   42 1
    10    5    6 ar
    11    5   43 1
    12    6    7 ar
    13    6    9 1
    14    7    8 ar
    15    7   44 1
    16    8   45 1
    17    9   10 am
    18    9   46 1
    19   10   11 2
    20   10   12 am
    21   12   18 1
    22   12   13 1
    23   13   14 1
    24   13   47 1
    25   13   48 1
    26   14   15 1
    27   14   49 1
    28   14   50 1
    29   15   16 1
    30   15   51 1
    31   15   52 1
    32   16   17 1
    33   16   19 am
    34   17   18 1
    35   17   53 1
    36   17   54 1
    37   18   55 1
    38   18   56 1
    39   19   20 2
    40   19   21 1
    41   21   26 ar
    42   21   22 ar
    43   22   23 ar
    44   22   57 1
    45   23   24 ar
    46   23   58 1
    47   24   25 ar
    48   24   59 1
    49   25   26 ar
    50   25   27 1
    51   26   60 1
    52   27   28 1
    53   27   61 1
    54   27   62 1
    55   28   37 2
    56   28   29 1
    57   29   34 ar
    58   29   30 ar
    59   30   31 ar
    60   30   63 1
    61   31   32 ar
    62   31   64 1
    63   32   33 ar
    64   32   65 1
    65   33   34 ar
    66   33   66 1
    67   34   35 1
    68   35   36 am
    69   35   38 2
    70   36   37 1
    71   36   67 1
@<TRIPOS>MOLECULE
CHEMBL541744
   41    43     0     0     0
SMALL
USER_CHARGES

@<TRIPOS>ATOM
      1 C1         -0.0178    1.4648    0.0101 C.3       1 <0>        -0.0476
      2 N1          0.0021   -0.0041    0.0020 N.4       1 <0>        -0.3863
      3 C2          0.7126   -0.4907    1.1921 C.3       1 <0>        -0.0528
      4 C3         -1.3761   -0.5125    0.0124 C.3       1 <0>         0.0490
      5 C4         -1.3587   -2.0136   -0.1196 C.ar      1 <0>        -0.1752
      6 C5         -1.3927   -2.5917   -1.3754 C.ar      1 <0>        -0.0731
      7 C6         -1.3697   -3.9703   -1.5062 C.ar      1 <0>        -0.1356
      8 C7         -1.3162   -4.7595   -0.3752 C.ar      1 <0>         0.1937
      9 C8         -1.2933   -4.1816    0.8961 C.ar      1 <0>         0.1138
     10 C9         -1.3031   -2.8013    1.0161 C.ar      1 <0>        -0.1018
     11 N2         -1.2737   -5.0020    2.0328 N.am      1 <0>        -0.6651
     12 C10        -0.8918   -6.2963    1.9273 C.2       1 <0>         0.5048
     13 O1         -0.8553   -7.0077    2.9091 O.2       1 <0>        -0.4946
     14 C11        -0.5141   -6.8413    0.5782 C.3       1 <0>         0.1531
     15 N3         -1.2724   -6.1671   -0.4597 N.pl3     1 <0>        -0.6178
     16 C12        -2.0152   -6.8273   -1.5241 C.3       1 <0>         0.1295
     17 C13        -1.5846   -8.2859   -1.6723 C.3       1 <0>        -0.1341
     18 C14        -1.6285   -8.9292   -0.2780 C.3       1 <0>        -0.1211
     19 C15        -0.4778   -8.3438    0.5398 C.3       1 <0>        -0.1209
     20 H1          1.0047    1.8421    0.0024 H         1 <0>         0.1237
     21 H2         -0.5450    1.8259   -0.8730 H         1 <0>         0.1237
     22 H3         -0.5280    1.8163    0.9069 H         1 <0>         0.1217
     23 H4          1.7352   -0.1134    1.1844 H         1 <0>         0.1230
     24 H5          0.2024   -0.1392    2.0889 H         1 <0>         0.1209
     25 H6          0.7273   -1.5806    1.1861 H         1 <0>         0.1230
     26 H7         -1.8584   -0.2358    0.9500 H         1 <0>         0.1334
     27 H8         -1.9290   -0.0808   -0.8218 H         1 <0>         0.1372
     28 H9         -1.4376   -1.9673   -2.2554 H         1 <0>         0.1367
     29 H10        -1.3938   -4.4244   -2.4858 H         1 <0>         0.1436
     30 H11        -1.2716   -2.3420    1.9931 H         1 <0>         0.1362
     31 H12        -1.5335   -4.6419    2.8952 H         1 <0>         0.4154
     32 H13         0.5153   -6.5203    0.4192 H         1 <0>         0.0810
     33 H14        -3.0799   -6.7904   -1.2933 H         1 <0>         0.0598
     34 H15        -1.8355   -6.3042   -2.4633 H         1 <0>         0.0753
     35 H16        -2.2692   -8.8072   -2.3414 H         1 <0>         0.0882
     36 H17        -0.5707   -8.3334   -2.0694 H         1 <0>         0.0760
     37 H18        -2.5788   -8.7007    0.2046 H         1 <0>         0.0681
     38 H19        -1.5077  -10.0090   -0.3652 H         1 <0>         0.0826
     39 H20         0.4671   -8.6634    0.1004 H         1 <0>         0.0860
     40 H21        -0.5385   -8.7250    1.5592 H         1 <0>         0.0999
     41 H22         0.4744   -0.3295   -0.8281 H         1 <0>         0.4263
@<TRIPOS>BOND
     1    1    2 1
     2    1   20 1
     3    1   21 1
     4    1   22 1
     5    2    3 1
     6    2    4 1
     7    2   41 1
     8    3   23 1
     9    3   24 1
    10    3   25 1
    11    4    5 1
    12    4   26 1
    13    4   27 1
    14    5   10 ar
    15    5    6 ar
    16    6    7 ar
    17    6   28 1
    18    7    8 ar
    19    7   29 1
    20    8   15 1
    21    8    9 ar
    22    9   10 ar
    23    9   11 1
    24   10   30 1
    25   11   12 am
    26   11   31 1
    27   12   13 2
    28   12   14 1
    29   14   19 1
    30   14   15 1
    31   14   32 1
    32   15   16 1
    33   16   17 1
    34   16   33 1
    35   16   34 1
    36   17   18 1
    37   17   35 1
    38   17   36 1
    39   18   19 1
    40   18   37 1
    41   18   38 1
    42   19   39 1
    43   19   40 1
@<TRIPOS>MOLECULE
CHEMBL541744__1
   41    43     0     0     0
SMALL
USER_CHARGES

@<TRIPOS>ATOM
      1 C1         -0.0178    1.4648    0.0101 C.3       1 <0>        -0.0477
      2 N1          0.0021   -0.0041    0.0020 N.4       1 <0>        -0.3864
      3 C2          0.7126   -0.4907    1.1921 C.3       1 <0>        -0.0527
      4 C3         -1.3761   -0.5125    0.0124 C.3       1 <0>         0.0491
      5 C4         -1.3587   -2.0136   -0.1196 C.ar      1 <0>        -0.1750
      6 C5         -1.3927   -2.5920   -1.3752 C.ar      1 <0>        -0.0733
      7 C6         -1.3835   -3.9708   -1.5055 C.ar      1 <0>        -0.1351
      8 C7         -1.3370   -4.7601   -0.3744 C.ar      1 <0>         0.1936
      9 C8         -1.2907   -4.1818    0.8960 C.ar      1 <0>         0.1135
     10 C9         -1.3031   -2.8015    1.0159 C.ar      1 <0>        -0.1020
     11 N2         -1.2084   -5.0009    2.0308 N.am      1 <0>        -0.6652
     12 C10        -1.5579   -6.3060    1.9503 C.2       1 <0>         0.5062
     13 O1         -1.5073   -7.0169    2.9318 O.2       1 <0>        -0.4947
     14 C11        -2.0102   -6.8634    0.6295 C.3       1 <0>         0.1515
     15 N3         -1.3443   -6.1687   -0.4570 N.pl3     1 <0>        -0.6178
     16 C12        -0.6566   -6.8077   -1.5702 C.3       1 <0>         0.1307
     17 C13        -1.0534   -8.2784   -1.6908 C.3       1 <0>        -0.1348
     18 C14        -0.8956   -8.9182   -0.3031 C.3       1 <0>        -0.1204
     19 C15        -2.0046   -8.3663    0.5920 C.3       1 <0>        -0.1208
     20 H1          1.0047    1.8421    0.0024 H         1 <0>         0.1236
     21 H2         -0.5450    1.8259   -0.8730 H         1 <0>         0.1238
     22 H3         -0.5280    1.8163    0.9069 H         1 <0>         0.1217
     23 H4          1.7352   -0.1134    1.1844 H         1 <0>         0.1230
     24 H5          0.2024   -0.1392    2.0889 H         1 <0>         0.1210
     25 H6          0.7273   -1.5806    1.1861 H         1 <0>         0.1228
     26 H7         -1.8584   -0.2358    0.9500 H         1 <0>         0.1335
     27 H8         -1.9290   -0.0808   -0.8218 H         1 <0>         0.1374
     28 H9         -1.4267   -1.9675   -2.2557 H         1 <0>         0.1365
     29 H10        -1.4129   -4.4250   -2.4849 H         1 <0>         0.1437
     30 H11        -1.2733   -2.3423    1.9929 H         1 <0>         0.1364
     31 H12        -0.9012   -4.6322    2.8738 H         1 <0>         0.4145
     32 H13        -3.0570   -6.5730    0.5410 H         1 <0>         0.0825
     33 H14        -0.9148   -6.2907   -2.4944 H         1 <0>         0.0748
     34 H15         0.4198   -6.7395   -1.4122 H         1 <0>         0.0587
     35 H16        -2.0902   -8.3560   -2.0179 H         1 <0>         0.0766
     36 H17        -0.4009   -8.7800   -2.4055 H         1 <0>         0.0880
     37 H18        -0.9900  -10.0012   -0.3827 H         1 <0>         0.0825
     38 H19         0.0782   -8.6612    0.1137 H         1 <0>         0.0675
     39 H20        -1.8632   -8.7446    1.6044 H         1 <0>         0.1000
     40 H21        -2.9675   -8.7141    0.2178 H         1 <0>         0.0864
     41 H22         0.4744   -0.3295   -0.8281 H         1 <0>         0.4262
@<TRIPOS>BOND
     1    1    2 1
     2    1   20 1
     3    1   21 1
     4    1   22 1
     5    2    3 1
     6    2    4 1
     7    2   41 1
     8    3   23 1
     9    3   24 1
    10    3   25 1
    11    4    5 1
    12    4   26 1
    13    4   27 1
    14    5   10 ar
    15    5    6 ar
    16    6    7 ar
    17    6   28 1
    18    7    8 ar
    19    7   29 1
    20    8   15 1
    21    8    9 ar
    22    9   10 ar
    23    9   11 1
    24   10   30 1
    25   11   12 am
    26   11   31 1
    27   12   13 2
    28   12   14 1
    29   14   19 1
    30   14   15 1
    31   14   32 1
    32   15   16 1
    33   16   17 1
    34   16   33 1
    35   16   34 1
    36   17   18 1
    37   17   35 1
    38   17   36 1
    39   18   19 1
    40   18   37 1
    41   18   38 1
    42   19   39 1
    43   19   40 1
@<TRIPOS>MOLECULE
CHEMBL144690
   34    37     0     0     0
SMALL
USER_CHARGES

@<TRIPOS>ATOM
      1 C1         -0.0167    1.3794    0.0096 C.ar      1 <0>        -0.1067
      2 C2          1.1684    2.0934    0.0021 C.ar      1 <0>        -0.1169
      3 C3          2.3774    1.4292   -0.0134 C.ar      1 <0>        -0.1028
      4 C4          2.4034    0.0337   -0.0211 C.ar      1 <0>        -0.0436
      5 C5          1.2043   -0.6806   -0.0130 C.ar      1 <0>        -0.0904
      6 C6          0.0021   -0.0041    0.0020 C.ar      1 <0>        -0.1166
      7 C7          3.6955   -0.6847   -0.0382 C.2       1 <0>         0.1458
      8 C8          3.9945   -1.7418   -0.8329 C.2       1 <0>        -0.1645
      9 C9          5.3145   -2.1605   -0.5155 C.ar      1 <0>        -0.0583
     10 C10         6.1264   -3.2253   -0.9621 C.ar      1 <0>        -0.0750
     11 C11         7.4665   -3.2573   -0.5675 C.ar      1 <0>        -0.0495
     12 C12         7.9574   -2.3165    0.3171 C.ar      1 <0>        -0.1131
     13 C13         7.1391   -1.3315    0.8336 C.ar      1 <0>        -0.0835
     14 C14         5.8123   -1.2445    0.4276 C.ar      1 <0>         0.0860
     15 N1          4.7843   -0.3819    0.7451 N.pl3     1 <0>        -0.5791
     16 H1          4.8223    0.3209    1.4126 H         1 <0>         0.4222
     17 C15         5.5888   -4.3289   -1.7539 C.2       1 <0>         0.3729
     18 N2          4.5678   -4.2334   -2.6614 N.pl3     1 <0>        -0.6473
     19 C16         3.9412   -2.9780   -2.9962 C.3       1 <0>         0.0938
     20 C17         3.1379   -2.3838   -1.8662 C.3       1 <0>        -0.0669
     21 S1          6.2738   -5.8250   -1.5355 S.3       1 <0>        -0.5268
     22 H2         -0.9605    1.9041    0.0260 H         1 <0>         0.1273
     23 H3          1.1469    3.1732    0.0081 H         1 <0>         0.1282
     24 H4          3.3017    1.9877   -0.0199 H         1 <0>         0.1228
     25 H5          1.2176   -1.7605   -0.0192 H         1 <0>         0.1283
     26 H6         -0.9265   -0.5556    0.0082 H         1 <0>         0.1297
     27 H7          8.1224   -4.0223   -0.9561 H         1 <0>         0.1470
     28 H8          8.9965   -2.3522    0.6093 H         1 <0>         0.1396
     29 H9          7.5301   -0.6279    1.5537 H         1 <0>         0.1297
     30 H10         4.7160   -2.2674   -3.2842 H         1 <0>         0.0789
     31 H11         3.2808   -3.1343   -3.8491 H         1 <0>         0.0998
     32 H12         2.5519   -3.1740   -1.3969 H         1 <0>         0.0772
     33 H13         2.4564   -1.6366   -2.2729 H         1 <0>         0.0915
     34 H14         4.2533   -5.0417   -3.0957 H         1 <0>         0.4202
@<TRIPOS>BOND
     1    1    6 ar
     2    1    2 ar
     3    1   22 1
     4    2    3 ar
     5    2   23 1
     6    3    4 ar
     7    3   24 1
     8    4    5 ar
     9    4    7 1
    10    5    6 ar
    11    5   25 1
    12    6   26 1
    13    7   15 1
    14    7    8 2
    15    8   20 1
    16    8    9 1
    17    9   14 ar
    18    9   10 ar
    19   10   11 ar
    20   10   17 1
    21   11   12 ar
    22   11   27 1
    23   12   13 ar
    24   12   28 1
    25   13   14 ar
    26   13   29 1
    27   14   15 1
    28   15   16 1
    29   17   18 2
    30   17   21 1
    31   18   19 1
    32   18   34 1
    33   19   20 1
    34   19   30 1
    35   19   31 1
    36   20   32 1
    37   20   33 1
@<TRIPOS>MOLECULE
CHEMBL204825
   45    48     0     0     0
SMALL
USER_CHARGES

@<TRIPOS>ATOM
      1 C1          1.4482    1.3851   -0.1165 C.ar      1 <0>        -0.0871
      2 C2          2.7435    1.8640   -0.2653 C.ar      1 <0>        -0.1105
      3 C3          3.8053    0.9945   -0.3864 C.ar      1 <0>        -0.0544
      4 C4          3.5711   -0.3796   -0.3581 C.ar      1 <0>        -0.1256
      5 C5          2.2514   -0.8630   -0.2060 C.ar      1 <0>        -0.0601
      6 C6          1.1952    0.0422   -0.0861 C.ar      1 <0>        -0.0978
      7 C7          2.0352   -2.3097   -0.1802 C.2       1 <0>         0.1367
      8 N1          3.0448   -3.1201   -0.2954 N.2       1 <0>        -0.2193
      9 N2          4.3574   -2.6721   -0.4465 N.am      1 <0>        -0.5336
     10 C8          4.6591   -1.3573   -0.4825 C.2       1 <0>         0.5281
     11 O1          5.8125   -0.9888   -0.6158 O.2       1 <0>        -0.5204
     12 C9          0.6417   -2.8604   -0.0197 C.3       1 <0>        -0.0182
     13 C10         0.6931   -4.3666   -0.0246 C.ar      1 <0>        -0.0824
     14 C11         0.5854   -5.0571   -1.2190 C.ar      1 <0>        -0.0775
     15 C12         0.6320   -6.4396   -1.2323 C.ar      1 <0>        -0.1201
     16 C13         0.7860   -7.1392   -0.0530 C.ar      1 <0>        -0.0616
     17 C14         0.8953   -6.4489    1.1549 C.ar      1 <0>        -0.1299
     18 C15         0.8531   -5.0536    1.1607 C.ar      1 <0>        -0.0767
     19 C16         1.0600   -7.1920    2.4224 C.2       1 <0>         0.5642
     20 O2          1.7436   -8.1966    2.4535 O.2       1 <0>        -0.5295
     21 N3          0.4523   -6.7555    3.5434 N.am      1 <0>        -0.6131
     22 C17        -0.4856   -5.6222    3.5044 C.3       1 <0>         0.0627
     23 C18        -1.7767   -6.0384    4.2183 C.3       1 <0>         0.0457
     24 O3         -1.4542   -6.5513    5.5132 O.3       1 <0>        -0.3779
     25 C19        -0.6426   -7.7280    5.4911 C.3       1 <0>         0.0477
     26 C20         0.7023   -7.4019    4.8414 C.3       1 <0>         0.0758
     27 H1          0.6302    2.0834   -0.0191 H         1 <0>         0.1369
     28 H2          2.9202    2.9292   -0.2867 H         1 <0>         0.1376
     29 H3          4.8098    1.3739   -0.5025 H         1 <0>         0.1435
     30 H4          0.1833   -0.3169    0.0298 H         1 <0>         0.1419
     31 H5          0.2208   -2.5144    0.9244 H         1 <0>         0.1069
     32 H6          0.0174   -2.5155   -0.8439 H         1 <0>         0.1093
     33 H7          0.4640   -4.5143   -2.1447 H         1 <0>         0.1269
     34 H8          0.5474   -6.9726   -2.1678 H         1 <0>         0.1314
     35 H9          0.8216   -8.2185   -0.0647 H         1 <0>         0.1311
     36 H10         0.9415   -4.5133    2.0917 H         1 <0>         0.1289
     37 H11        -0.0456   -4.7639    4.0122 H         1 <0>         0.0805
     38 H12        -0.7058   -5.3634    2.4687 H         1 <0>         0.1056
     39 H13        -2.4306   -5.1725    4.3222 H         1 <0>         0.1094
     40 H14        -2.2820   -6.8094    3.6368 H         1 <0>         0.0577
     41 H15        -0.4806   -8.0777    6.5107 H         1 <0>         0.1098
     42 H16        -1.1438   -8.5052    4.9142 H         1 <0>         0.0574
     43 H17         1.2684   -8.3212    4.6908 H         1 <0>         0.1041
     44 H18         1.2640   -6.7259    5.4861 H         1 <0>         0.0786
     45 H19         5.0720   -3.3229   -0.5280 H         1 <0>         0.4370
@<TRIPOS>BOND
     1    1    6 ar
     2    1    2 ar
     3    1   27 1
     4    2    3 ar
     5    2   28 1
     6    3    4 ar
     7    3   29 1
     8    4   10 1
     9    4    5 ar
    10    5    6 ar
    11    5    7 1
    12    6   30 1
    13    7    8 2
    14    7   12 1
    15    8    9 1
    16    9   10 am
    17    9   45 1
    18   10   11 2
    19   12   13 1
    20   12   31 1
    21   12   32 1
    22   13   18 ar
    23   13   14 ar
    24   14   15 ar
    25   14   33 1
    26   15   16 ar
    27   15   34 1
    28   16   17 ar
    29   16   35 1
    30   17   18 ar
    31   17   19 1
    32   18   36 1
    33   19   20 2
    34   19   21 am
    35   21   26 1
    36   21   22 1
    37   22   23 1
    38   22   37 1
    39   22   38 1
    40   23   24 1
    41   23   39 1
    42   23   40 1
    43   24   25 1
    44   25   26 1
    45   25   41 1
    46   25   42 1
    47   26   43 1
    48   26   44 1
@<TRIPOS>MOLECULE
CHEMBL188477
   38    41     0     0     0
SMALL
USER_CHARGES

@<TRIPOS>ATOM
      1 C1          0.0384    1.4747   -0.1042 C.ar      1 <0>        -0.1050
      2 C2          1.0956    1.8848   -0.8966 C.ar      1 <0>        -0.1225
      3 C3          2.2859    1.1871   -0.8790 C.ar      1 <0>        -0.0730
      4 C4          2.4220    0.0666   -0.0604 C.ar      1 <0>        -0.0895
      5 C5          1.3529   -0.3420    0.7361 C.ar      1 <0>        -0.1023
      6 C6          0.1674    0.3637    0.7100 C.ar      1 <0>        -0.1241
      7 C7          3.6977   -0.6874   -0.0373 C.2       1 <0>         0.2514
      8 N1          4.8327   -0.0517   -0.1301 N.2       1 <0>        -0.3308
      9 O1          4.8537    1.3641   -0.1241 O.3       1 <0>        -0.4018
     10 C8          3.6837   -2.1591    0.0909 C.2       1 <0>        -0.1285
     11 C9          2.5913   -2.9622    0.1058 C.2       1 <0>         0.1036
     12 N2          2.9730   -4.2682    0.2249 N.pl3     1 <0>        -0.4727
     13 C10         4.3463   -4.3457    0.3620 C.ar      1 <0>         0.1271
     14 C11         4.8539   -3.0440    0.2212 C.ar      1 <0>        -0.0873
     15 C12         6.2294   -2.8228    0.1991 C.ar      1 <0>        -0.0297
     16 C13         7.0972   -3.8880    0.3261 C.ar      1 <0>        -0.1522
     17 C14         6.6127   -5.1673    0.5108 C.ar      1 <0>        -0.0288
     18 C15         5.2352   -5.4088    0.5827 C.ar      1 <0>        -0.1461
     19 C16         4.7738   -6.7517    0.9456 C.2       1 <0>         0.5629
     20 O2          5.4874   -7.4087    1.6789 O.2       1 <0>        -0.5350
     21 N3          3.6241   -7.3165    0.5323 N.am      1 <0>        -0.7221
     22 C17         2.7348   -6.6475   -0.3877 C.3       1 <0>         0.0953
     23 C18         2.0909   -5.4164    0.1959 C.3       1 <0>         0.0820
     24 H1         -0.8898    2.0266   -0.1179 H         1 <0>         0.1251
     25 H2          0.9889    2.7527   -1.5306 H         1 <0>         0.1266
     26 H3          3.1105    1.5080   -1.4983 H         1 <0>         0.1298
     27 H4          1.4524   -1.2093    1.3719 H         1 <0>         0.1271
     28 H5         -0.6613    0.0482    1.3264 H         1 <0>         0.1268
     29 H6          5.7397    1.7446   -0.1972 H         1 <0>         0.4018
     30 H7          1.5696   -2.6195    0.0341 H         1 <0>         0.1829
     31 H8          6.6151   -1.8208    0.0827 H         1 <0>         0.1385
     32 H9          8.1630   -3.7197    0.2803 H         1 <0>         0.1358
     33 H10         7.3044   -5.9910    0.6076 H         1 <0>         0.1382
     34 H11         3.3866   -8.1976    0.8613 H         1 <0>         0.4100
     35 H12         3.3003   -6.3599   -1.2741 H         1 <0>         0.0799
     36 H13         1.9517   -7.3443   -0.6864 H         1 <0>         0.1132
     37 H14         1.7711   -5.6376    1.2142 H         1 <0>         0.0844
     38 H15         1.2114   -5.1669   -0.3978 H         1 <0>         0.1089
@<TRIPOS>BOND
     1    1    6 ar
     2    1    2 ar
     3    1   24 1
     4    2    3 ar
     5    2   25 1
     6    3    4 ar
     7    3   26 1
     8    4    5 ar
     9    4    7 1
    10    5    6 ar
    11    5   27 1
    12    6   28 1
    13    7    8 2
    14    7   10 1
    15    8    9 1
    16    9   29 1
    17   10   14 1
    18   10   11 2
    19   11   12 1
    20   11   30 1
    21   12   23 1
    22   12   13 1
    23   13   18 ar
    24   13   14 ar
    25   14   15 ar
    26   15   16 ar
    27   15   31 1
    28   16   17 ar
    29   16   32 1
    30   17   18 ar
    31   17   33 1
    32   18   19 1
    33   19   20 2
    34   19   21 am
    35   21   22 1
    36   21   34 1
    37   22   23 1
    38   22   35 1
    39   22   36 1
    40   23   37 1
    41   23   38 1
@<TRIPOS>MOLECULE
CHEMBL360820
   41    45     0     0     0
SMALL
USER_CHARGES

@<TRIPOS>ATOM
      1 C1         -0.0138    1.3672   -0.0910 C.ar      1 <0>        -0.1514
      2 C2          1.1691    2.0630   -0.2289 C.ar      1 <0>        -0.0375
      3 C3          2.3862    1.3960   -0.0861 C.ar      1 <0>        -0.0895
      4 C4          3.7873    1.8326   -0.1745 C.2       1 <0>        -0.0770
      5 C5          4.5545    0.7366    0.1445 C.2       1 <0>         0.1551
      6 N1          3.7315   -0.3360    0.4164 N.pl3     1 <0>        -0.4700
      7 C6          2.4131    0.0211    0.2048 C.ar      1 <0>         0.1387
      8 C7          1.2052   -0.6913    0.2592 C.ar      1 <0>        -0.1453
      9 C8         -0.0021    0.0077    0.1479 C.ar      1 <0>        -0.0285
     10 C9          1.1607   -2.1522    0.3622 C.2       1 <0>         0.5628
     11 O1          0.2366   -2.7224   -0.1849 O.2       1 <0>        -0.5359
     12 N2          2.0583   -2.9143    1.0129 N.am      1 <0>        -0.7212
     13 C10         3.1583   -2.3348    1.7480 C.3       1 <0>         0.0966
     14 C11         4.1631   -1.6436    0.8640 C.3       1 <0>         0.0825
     15 C12         6.0299    0.7120    0.1883 C.ar      1 <0>        -0.0498
     16 C13         6.7228    1.6221    0.9901 C.ar      1 <0>        -0.0238
     17 C14         8.1009    1.5944    1.0269 C.ar      1 <0>        -0.1532
     18 C15         8.7986    0.6663    0.2700 C.ar      1 <0>         0.1132
     19 C16         8.1164   -0.2389   -0.5278 C.ar      1 <0>        -0.1570
     20 C17         6.7382   -0.2251   -0.5675 C.ar      1 <0>        -0.0695
     21 F1         10.1488    0.6441    0.3096 F         1 <0>        -0.1372
     22 C18         4.2754    3.1832   -0.5356 C.2       1 <0>         0.1528
     23 C19         3.4730    4.2976   -0.8547 C.2       1 <0>        -0.2613
     24 C20         4.2943    5.3352   -1.1243 C.2       1 <0>         0.0616
     25 N3          5.5677    4.9072   -0.9848 N.pl3     1 <0>        -0.4765
     26 H1          6.3656    5.4425   -1.1174 H         1 <0>         0.4400
     27 N4          5.5363    3.5579   -0.6101 N.2       1 <0>        -0.2844
     28 H2         -0.9556    1.8904   -0.1660 H         1 <0>         0.1362
     29 H3          1.1532    3.1208   -0.4464 H         1 <0>         0.1338
     30 H4         -0.9368   -0.5235    0.2503 H         1 <0>         0.1381
     31 H5          1.9640   -3.8793    0.9880 H         1 <0>         0.4099
     32 H6          2.7613   -1.6107    2.4595 H         1 <0>         0.0804
     33 H7          3.6643   -3.1253    2.3022 H         1 <0>         0.1126
     34 H8          4.3485   -2.2684   -0.0097 H         1 <0>         0.0817
     35 H9          5.0966   -1.5334    1.4159 H         1 <0>         0.1059
     36 H10         6.1802    2.3462    1.5797 H         1 <0>         0.1338
     37 H11         8.6377    2.2975    1.6464 H         1 <0>         0.1384
     38 H12         8.6653   -0.9596   -1.1157 H         1 <0>         0.1387
     39 H13         6.2075   -0.9342   -1.1855 H         1 <0>         0.1302
     40 H14         2.3935    4.3179   -0.8794 H         1 <0>         0.1486
     41 H15         3.9869    6.3323   -1.4029 H         1 <0>         0.1775
@<TRIPOS>BOND
     1    1    9 ar
     2    1    2 ar
     3    1   28 1
     4    2    3 ar
     5    2   29 1
     6    3    7 ar
     7    3    4 1
     8    4    5 2
     9    4   22 1
    10    5    6 1
    11    5   15 1
    12    6   14 1
    13    6    7 1
    14    7    8 ar
    15    8    9 ar
    16    8   10 1
    17    9   30 1
    18   10   11 2
    19   10   12 am
    20   12   13 1
    21   12   31 1
    22   13   14 1
    23   13   32 1
    24   13   33 1
    25   14   34 1
    26   14   35 1
    27   15   20 ar
    28   15   16 ar
    29   16   17 ar
    30   16   36 1
    31   17   18 ar
    32   17   37 1
    33   18   19 ar
    34   18   21 1
    35   19   20 ar
    36   19   38 1
    37   20   39 1
    38   22   27 2
    39   22   23 1
    40   23   24 2
    41   23   40 1
    42   24   25 1
    43   24   41 1
    44   25   26 1
    45   25   27 1
@<TRIPOS>MOLECULE
CHEMBL360820__1
   41    45     0     0     0
SMALL
USER_CHARGES

@<TRIPOS>ATOM
      1 C1         -0.0181    1.3737    0.0581 C.ar      1 <0>        -0.1494
      2 C2          1.1597    2.0896    0.1145 C.ar      1 <0>        -0.0337
      3 C3          2.3813    1.4174    0.0836 C.ar      1 <0>        -0.0883
      4 C4          3.7801    1.8727    0.1208 C.2       1 <0>        -0.0966
      5 C5          4.5559    0.7340    0.1447 C.2       1 <0>         0.1472
      6 N1          3.7398   -0.3765    0.1206 N.pl3     1 <0>        -0.4667
      7 C6          2.4192    0.0150    0.0030 C.ar      1 <0>         0.1398
      8 C7          1.2171   -0.6954   -0.1387 C.ar      1 <0>        -0.1458
      9 C8          0.0043   -0.0004   -0.0688 C.ar      1 <0>        -0.0255
     10 C9          1.1842   -2.1322   -0.4236 C.2       1 <0>         0.5625
     11 O1          0.2669   -2.5447   -1.1068 O.2       1 <0>        -0.5338
     12 N2          2.0853   -3.0325    0.0091 N.am      1 <0>        -0.7211
     13 C10         3.1781   -2.6590    0.8764 C.3       1 <0>         0.0966
     14 C11         4.1801   -1.7529    0.2111 C.3       1 <0>         0.0783
     15 C12         6.0307    0.7078    0.1888 C.ar      1 <0>        -0.0629
     16 C13         6.7735    1.3929   -0.7760 C.ar      1 <0>        -0.0527
     17 C14         8.1512    1.3647   -0.7297 C.ar      1 <0>        -0.1477
     18 C15         8.7994    0.6585    0.2715 C.ar      1 <0>         0.1168
     19 C16         8.0679   -0.0236    1.2312 C.ar      1 <0>        -0.1507
     20 C17         6.6897    0.0024    1.1988 C.ar      1 <0>        -0.0766
     21 F1         10.1496    0.6344    0.3118 F         1 <0>        -0.1322
     22 C18         4.2565    3.2687    0.1298 C.2       1 <0>         0.1629
     23 C19         3.8005    4.2953   -0.6701 C.2       1 <0>        -0.2536
     24 C20         4.5186    5.4430   -0.3355 C.2       1 <0>         0.0502
     25 N3          5.3679    5.1446    0.6143 N.2       1 <0>        -0.2885
     26 H1          5.7314    3.3052    1.6083 H         1 <0>         0.4354
     27 N4          5.2273    3.7887    0.9352 N.pl3     1 <0>        -0.4680
     28 H2         -0.9640    1.8916    0.1181 H         1 <0>         0.1377
     29 H3          1.1359    3.1673    0.1821 H         1 <0>         0.1352
     30 H4         -0.9263   -0.5466   -0.1150 H         1 <0>         0.1395
     31 H5          1.9989   -3.9577   -0.2693 H         1 <0>         0.4107
     32 H6          2.7730   -2.1502    1.7511 H         1 <0>         0.0802
     33 H7          3.6888   -3.5639    1.2059 H         1 <0>         0.1134
     34 H8          4.3735   -2.1248   -0.7951 H         1 <0>         0.0840
     35 H9          5.1108   -1.7856    0.7776 H         1 <0>         0.1057
     36 H10         6.2695    1.9432   -1.5568 H         1 <0>         0.1391
     37 H11         8.7264    1.8936   -1.4752 H         1 <0>         0.1440
     38 H12         8.5785   -0.5724    2.0086 H         1 <0>         0.1439
     39 H13         6.1208   -0.5250    1.9502 H         1 <0>         0.1366
     40 H14         3.0270    4.2233   -1.4205 H         1 <0>         0.1497
     41 H15         4.3947    6.4167   -0.7860 H         1 <0>         0.1848
@<TRIPOS>BOND
     1    1    9 ar
     2    1    2 ar
     3    1   28 1
     4    2    3 ar
     5    2   29 1
     6    3    7 ar
     7    3    4 1
     8    4    5 2
     9    4   22 1
    10    5    6 1
    11    5   15 1
    12    6   14 1
    13    6    7 1
    14    7    8 ar
    15    8    9 ar
    16    8   10 1
    17    9   30 1
    18   10   11 2
    19   10   12 am
    20   12   13 1
    21   12   31 1
    22   13   14 1
    23   13   32 1
    24   13   33 1
    25   14   34 1
    26   14   35 1
    27   15   20 ar
    28   15   16 ar
    29   16   17 ar
    30   16   36 1
    31   17   18 ar
    32   17   37 1
    33   18   19 ar
    34   18   21 1
    35   19   20 ar
    36   19   38 1
    37   20   39 1
    38   22   23 2
    39   22   27 1
    40   23   24 1
    41   23   40 1
    42   24   25 2
    43   24   41 1
    44   25   27 1
    45   26   27 1
@<TRIPOS>MOLECULE
CHEMBL391403
   50    55     0     0     0
SMALL
USER_CHARGES

@<TRIPOS>ATOM
      1 C1         -0.0225    1.8097    0.0120 C.3       1 <0>        -0.6727
      2 S1          0.0021   -0.0041    0.0020 S.o2      1 <0>         2.6159
      3 O1          0.8352   -0.4880    1.0465 O.2       1 <0>        -0.9530
      4 O2         -1.3147   -0.5105   -0.1678 O.2       1 <0>        -0.9522
      5 N1          0.7947   -0.4113   -1.3938 N.pl3     1 <0>        -1.1167
      6 C2          2.2072   -0.0612   -1.5629 C.3       1 <0>         0.2083
      7 C3          2.7836   -0.8418   -2.7159 C.2       1 <0>         0.0350
      8 N2          2.8339   -0.5036   -3.9780 N.2       1 <0>        -0.4875
      9 C4          3.3781   -1.3023   -4.8849 C.2       1 <0>         0.1112
     10 C5          3.8802   -2.4914   -4.4290 C.2       1 <0>        -0.2208
     11 S2          3.5227   -2.3531   -2.6852 S.3       1 <0>         0.1467
     12 C6          3.4393   -0.9275   -6.3193 C.ar      1 <0>        -0.0562
     13 C7          4.0159   -1.8003   -7.2459 C.ar      1 <0>        -0.0553
     14 C8          4.0779   -1.4625   -8.5783 C.ar      1 <0>        -0.1410
     15 C9          3.5654   -0.2444   -9.0172 C.ar      1 <0>         0.1539
     16 C10         2.9852    0.6357   -8.0896 C.ar      1 <0>        -0.1127
     17 C11         2.9184    0.2888   -6.7427 C.ar      1 <0>        -0.0118
     18 C12         2.5466    1.8164   -8.8524 C.ar      1 <0>        -0.0306
     19 C13         1.9154    3.0105   -8.5049 C.ar      1 <0>        -0.0842
     20 C14         1.6278    3.9591   -9.5034 C.ar      1 <0>        -0.1578
     21 C15         1.9707    3.7085  -10.8305 C.ar      1 <0>         0.0103
     22 C16         2.5962    2.5256  -11.1730 C.ar      1 <0>        -0.1022
     23 C17         2.8892    1.5734  -10.1963 C.ar      1 <0>         0.1826
     24 N3          3.4970    0.3366  -10.2716 N.pl3     1 <0>        -0.6068
     25 H1          3.8297   -0.0680  -11.0880 H         1 <0>         0.4244
     26 C18         2.8593    2.4987  -12.6644 C.3       1 <0>        -0.0801
     27 C19         1.9403    3.5877  -13.2566 C.3       1 <0>        -0.1192
     28 C20         1.7712    4.5581  -12.0689 C.3       1 <0>        -0.0875
     29 C21         0.9714    5.0870   -8.8129 C.2       1 <0>         0.5819
     30 O3          0.5710    6.1053   -9.3406 O.2       1 <0>        -0.4622
     31 N4          0.8903    4.7975   -7.5017 N.am      1 <0>        -0.6814
     32 C22         1.4248    3.5910   -7.2403 C.2       1 <0>         0.5780
     33 O4          1.4917    3.0669   -6.1464 O.2       1 <0>        -0.4517
     34 H2          1.0001    2.1870    0.0043 H         1 <0>         0.1289
     35 H3         -0.5497    2.1708   -0.8711 H         1 <0>         0.1318
     36 H4         -0.5327    2.1613    0.9088 H         1 <0>         0.1321
     37 H5          0.3237   -0.8815   -2.0994 H         1 <0>         0.4236
     38 H6          2.2952    1.0060   -1.7665 H         1 <0>         0.1009
     39 H7          2.7532   -0.3034   -0.6511 H         1 <0>         0.1092
     40 H8          4.3625   -3.2902   -4.9728 H         1 <0>         0.2005
     41 H9          4.4161   -2.7468   -6.9136 H         1 <0>         0.1359
     42 H10         4.5260   -2.1442   -9.2861 H         1 <0>         0.1340
     43 H11         2.4679    0.9638   -6.0300 H         1 <0>         0.1528
     44 H12         3.9040    2.7334  -12.8684 H         1 <0>         0.0877
     45 H13         2.6029    1.5225  -13.0760 H         1 <0>         0.0788
     46 H14         2.4217    4.0854  -14.0984 H         1 <0>         0.0856
     47 H15         0.9797    3.1656  -13.5521 H         1 <0>         0.0785
     48 H16         0.7708    4.9908  -12.0736 H         1 <0>         0.0906
     49 H17         2.5245    5.3448  -12.1131 H         1 <0>         0.0942
     50 H18         0.4984    5.3812   -6.8335 H         1 <0>         0.4306
@<TRIPOS>BOND
     1    1    2 1
     2    1   34 1
     3    1   35 1
     4    1   36 1
     5    2    3 2
     6    2    4 2
     7    2    5 1
     8    5    6 1
     9    5   37 1
    10    6    7 1
    11    6   38 1
    12    6   39 1
    13    7   11 1
    14    7    8 2
    15    8    9 1
    16    9   10 2
    17    9   12 1
    18   10   11 1
    19   10   40 1
    20   12   17 ar
    21   12   13 ar
    22   13   14 ar
    23   13   41 1
    24   14   15 ar
    25   14   42 1
    26   15   24 1
    27   15   16 ar
    28   16   17 ar
    29   16   18 1
    30   17   43 1
    31   18   23 ar
    32   18   19 ar
    33   19   32 1
    34   19   20 ar
    35   20   21 ar
    36   20   29 1
    37   21   28 1
    38   21   22 ar
    39   22   23 ar
    40   22   26 1
    41   23   24 1
    42   24   25 1
    43   26   27 1
    44   26   44 1
    45   26   45 1
    46   27   28 1
    47   27   46 1
    48   27   47 1
    49   28   48 1
    50   28   49 1
    51   29   30 2
    52   29   31 am
    53   31   32 am
    54   31   50 1
    55   32   33 2
@<TRIPOS>MOLECULE
CHEMBL391402
   60    66     0     0     0
SMALL
USER_CHARGES

@<TRIPOS>ATOM
      1 C1         -0.0167    1.3781    0.0096 C.ar      1 <0>        -0.1073
      2 C2          1.1709    2.0855    0.0021 C.ar      1 <0>        -0.1236
      3 C3          2.3773    1.4107   -0.0130 C.ar      1 <0>        -0.0934
      4 C4          2.3960    0.0285   -0.0201 C.ar      1 <0>        -0.1011
      5 C5          1.2084   -0.6789   -0.0117 C.ar      1 <0>        -0.0931
      6 C6          0.0021   -0.0041    0.0020 C.ar      1 <0>        -0.1233
      7 C7          3.7112   -0.7071   -0.0376 C.3       1 <0>         0.1285
      8 O1          4.1410   -0.9464    1.3041 O.3       1 <0>        -0.3575
      9 C8          5.3077   -1.5988    1.4650 C.2       1 <0>         0.6540
     10 O2          5.9435   -1.9553    0.4929 O.2       1 <0>        -0.5653
     11 N1          5.7703   -1.8565    2.7044 N.am      1 <0>        -0.7055
     12 C9          7.0397   -2.5664    2.8795 C.3       1 <0>         0.2325
     13 C10         7.3273   -2.7260    4.3502 C.2       1 <0>         0.0241
     14 N2          6.9852   -3.7104    5.1401 N.2       1 <0>        -0.4814
     15 C11         7.3139   -3.7107    6.4239 C.2       1 <0>         0.1121
     16 C12         8.0260   -2.6309    6.8724 C.2       1 <0>        -0.2169
     17 S1          8.1716   -1.6836    5.3660 S.3       1 <0>         0.1465
     18 C13         6.9298   -4.8228    7.3280 C.ar      1 <0>        -0.0577
     19 C14         7.2903   -4.7829    8.6776 C.ar      1 <0>        -0.0551
     20 C15         6.9392   -5.8090    9.5245 C.ar      1 <0>        -0.1413
     21 C16         6.2196   -6.8998    9.0436 C.ar      1 <0>         0.1545
     22 C17         5.8554   -6.9441    7.6881 C.ar      1 <0>        -0.1126
     23 C18         6.2068   -5.9015    6.8345 C.ar      1 <0>        -0.0107
     24 C19         5.1170   -8.2034    7.4954 C.ar      1 <0>        -0.0310
     25 C20         4.5111   -8.8084    6.3946 C.ar      1 <0>        -0.0832
     26 C21         3.8693  -10.0506    6.5519 C.ar      1 <0>        -0.1575
     27 C22         3.8385  -10.6729    7.7983 C.ar      1 <0>         0.0104
     28 C23         4.4394  -10.0725    8.8875 C.ar      1 <0>        -0.1026
     29 C24         5.0805   -8.8409    8.7502 C.ar      1 <0>         0.1825
     30 N3          5.7455   -8.0445    9.6603 N.pl3     1 <0>        -0.6068
     31 H1          5.8644   -8.2573   10.5992 H         1 <0>         0.4244
     32 C25         4.2663  -10.9451   10.1133 C.3       1 <0>        -0.0799
     33 C26         3.1260  -11.9217    9.7564 C.3       1 <0>        -0.1192
     34 C27         3.2208  -11.9910    8.2178 C.3       1 <0>        -0.0875
     35 C28         3.3431  -10.4058    5.2190 C.2       1 <0>         0.5820
     36 O3          2.7223  -11.4140    4.9472 O.2       1 <0>        -0.4626
     37 N4          3.6657   -9.4255    4.3561 N.am      1 <0>        -0.6813
     38 C29         4.3545   -8.4480    4.9724 C.2       1 <0>         0.5766
     39 O4          4.7764   -7.4376    4.4463 O.2       1 <0>        -0.4494
     40 H2         -0.9591    1.9053    0.0259 H         1 <0>         0.1251
     41 H3          1.1563    3.1654    0.0076 H         1 <0>         0.1263
     42 H4          3.3051    1.9634   -0.0196 H         1 <0>         0.1252
     43 H5          1.2231   -1.7588   -0.0176 H         1 <0>         0.1251
     44 H6         -0.9258   -0.5567    0.0082 H         1 <0>         0.1262
     45 H7          3.5884   -1.6586   -0.5549 H         1 <0>         0.0797
     46 H8          4.4573   -0.1052   -0.5563 H         1 <0>         0.0799
     47 H9          5.2627   -1.5719    3.4805 H         1 <0>         0.4107
     48 H10         6.9735   -3.5496    2.4135 H         1 <0>         0.1079
     49 H11         7.8425   -1.9961    2.4121 H         1 <0>         0.1022
     50 H12         8.3996   -2.4140    7.8622 H         1 <0>         0.2017
     51 H13         7.8488   -3.9406    9.0585 H         1 <0>         0.1359
     52 H14         7.2232   -5.7683   10.5657 H         1 <0>         0.1341
     53 H15         5.9225   -5.9335    5.7931 H         1 <0>         0.1528
     54 H16         5.1847  -11.4950   10.3188 H         1 <0>         0.0876
     55 H17         3.9879  -10.3371   10.9741 H         1 <0>         0.0787
     56 H18         3.3018  -12.9016   10.2002 H         1 <0>         0.0855
     57 H19         2.1611  -11.5213   10.0677 H         1 <0>         0.0784
     58 H20         2.2274  -12.0988    7.7823 H         1 <0>         0.0906
     59 H21         3.8592  -12.8211    7.9153 H         1 <0>         0.0942
     60 H22         3.4326   -9.4236    3.4146 H         1 <0>         0.4309
@<TRIPOS>BOND
     1    1    6 ar
     2    1    2 ar
     3    1   40 1
     4    2    3 ar
     5    2   41 1
     6    3    4 ar
     7    3   42 1
     8    4    5 ar
     9    4    7 1
    10    5    6 ar
    11    5   43 1
    12    6   44 1
    13    7    8 1
    14    7   45 1
    15    7   46 1
    16    8    9 1
    17    9   10 2
    18    9   11 am
    19   11   12 1
    20   11   47 1
    21   12   13 1
    22   12   48 1
    23   12   49 1
    24   13   17 1
    25   13   14 2
    26   14   15 1
    27   15   16 2
    28   15   18 1
    29   16   17 1
    30   16   50 1
    31   18   23 ar
    32   18   19 ar
    33   19   20 ar
    34   19   51 1
    35   20   21 ar
    36   20   52 1
    37   21   30 1
    38   21   22 ar
    39   22   23 ar
    40   22   24 1
    41   23   53 1
    42   24   29 ar
    43   24   25 ar
    44   25   38 1
    45   25   26 ar
    46   26   27 ar
    47   26   35 1
    48   27   34 1
    49   27   28 ar
    50   28   29 ar
    51   28   32 1
    52   29   30 1
    53   30   31 1
    54   32   33 1
    55   32   54 1
    56   32   55 1
    57   33   34 1
    58   33   56 1
    59   33   57 1
    60   34   58 1
    61   34   59 1
    62   35   36 2
    63   35   37 am
    64   37   38 am
    65   37   60 1
    66   38   39 2
@<TRIPOS>MOLECULE
CHEMBL204809
   59    62     0     0     0
SMALL
USER_CHARGES

@<TRIPOS>ATOM
      1 C1         -0.9489    0.9505    0.3382 C.3       1 <0>        -0.1562
      2 C2         -0.6769   -0.5474    0.1856 C.3       1 <0>        -0.1520
      3 C3          0.0551   -1.0619    1.4267 C.3       1 <0>        -0.0190
      4 N1          0.3162   -2.5000    1.2802 N.4       1 <0>        -0.3662
      5 C4          0.7858   -3.0164    2.5639 C.3       1 <0>        -0.0089
      6 C5          0.3871   -4.4699    2.6933 C.3       1 <0>        -0.1574
      7 C6          1.5395   -5.3632    2.1993 C.3       1 <0>         0.0859
      8 N2          2.1774   -4.7906    0.9966 N.am      1 <0>        -0.6225
      9 C7          1.4110   -4.1907   -0.0762 C.3       1 <0>         0.0981
     10 C8          1.2101   -2.6831    0.2018 C.3       1 <0>        -0.0502
     11 C9          3.5207   -4.8270    0.8939 C.2       1 <0>         0.5658
     12 O1          4.0638   -4.4313   -0.1192 O.2       1 <0>        -0.4969
     13 C10         4.3330   -5.3477    2.0121 C.ar      1 <0>        -0.1774
     14 C11         4.0593   -6.6065    2.5517 C.ar      1 <0>        -0.0498
     15 C12         4.8216   -7.0869    3.5950 C.ar      1 <0>        -0.0834
     16 C13         5.8571   -6.3255    4.1098 C.ar      1 <0>        -0.0432
     17 C14         6.1355   -5.0785    3.5830 C.ar      1 <0>        -0.1487
     18 C15         5.3836   -4.5854    2.5320 C.ar      1 <0>         0.1484
     19 F1          5.6594   -3.3688    2.0134 F         1 <0>        -0.1262
     20 C16         4.5265   -8.4451    4.1775 C.3       1 <0>        -0.0177
     21 C17         5.3253   -9.4909    3.4431 C.2       1 <0>         0.1342
     22 C18         5.2078  -10.8995    3.8205 C.ar      1 <0>        -0.0644
     23 C19         4.3676  -11.3179    4.8541 C.ar      1 <0>        -0.0990
     24 C20         4.2919  -12.6459    5.1691 C.ar      1 <0>        -0.0861
     25 C21         5.0406  -13.5877    4.4750 C.ar      1 <0>        -0.1066
     26 C22         5.8784  -13.2041    3.4509 C.ar      1 <0>        -0.0530
     27 C23         5.9710  -11.8550    3.1114 C.ar      1 <0>        -0.1240
     28 C24         6.8443  -11.3827    2.0299 C.2       1 <0>         0.5281
     29 N3          6.8832  -10.0617    1.7574 N.am      1 <0>        -0.5336
     30 N4          6.1143   -9.1420    2.4711 N.2       1 <0>        -0.2249
     31 O2          7.5211  -12.1684    1.3909 O.2       1 <0>        -0.5130
     32 H1         -0.0037    1.4820    0.4489 H         1 <0>         0.0671
     33 H2         -1.4704    1.3170   -0.5460 H         1 <0>         0.0780
     34 H3         -1.5663    1.1197    1.2204 H         1 <0>         0.0674
     35 H4         -1.6221   -1.0788    0.0749 H         1 <0>         0.0872
     36 H5         -0.0595   -0.7165   -0.6966 H         1 <0>         0.0871
     37 H6          1.0003   -0.5304    1.5374 H         1 <0>         0.1300
     38 H7         -0.5623   -0.8927    2.3089 H         1 <0>         0.1333
     39 H8          1.8712   -2.9308    2.6155 H         1 <0>         0.1286
     40 H9          0.3360   -2.4421    3.3737 H         1 <0>         0.1381
     41 H10         0.1738   -4.6965    3.7380 H         1 <0>         0.1279
     42 H11        -0.5021   -4.6578    2.0916 H         1 <0>         0.0917
     43 H12         2.2844   -5.4558    2.9896 H         1 <0>         0.1098
     44 H13         1.1482   -6.3521    1.9602 H         1 <0>         0.0917
     45 H14         1.9454   -4.3171   -1.0177 H         1 <0>         0.1305
     46 H15         0.4390   -4.6793   -0.1441 H         1 <0>         0.1022
     47 H16         0.8047   -2.2026   -0.6887 H         1 <0>         0.1480
     48 H17         2.1705   -2.2303    0.4480 H         1 <0>         0.1312
     49 H18         3.2517   -7.2022    2.1525 H         1 <0>         0.1376
     50 H19         6.4501   -6.7078    4.9275 H         1 <0>         0.1430
     51 H20         6.9443   -4.4897    3.9900 H         1 <0>         0.1483
     52 H21         4.7987   -8.4547    5.2329 H         1 <0>         0.1136
     53 H22         3.4632   -8.6614    4.0745 H         1 <0>         0.1091
     54 H23         3.7805  -10.5959    5.4022 H         1 <0>         0.1406
     55 H24         3.6413  -12.9672    5.9690 H         1 <0>         0.1380
     56 H25         4.9654  -14.6316    4.7412 H         1 <0>         0.1398
     57 H26         6.4577  -13.9418    2.9154 H         1 <0>         0.1453
     58 H27        -0.5536   -2.9587    1.0541 H         1 <0>         0.4169
     59 H28         7.4583   -9.7435    1.0440 H         1 <0>         0.4376
@<TRIPOS>BOND
     1    1    2 1
     2    1   32 1
     3    1   33 1
     4    1   34 1
     5    2    3 1
     6    2   35 1
     7    2   36 1
     8    3    4 1
     9    3   37 1
    10    3   38 1
    11    4   10 1
    12    4    5 1
    13    4   58 1
    14    5    6 1
    15    5   39 1
    16    5   40 1
    17    6    7 1
    18    6   41 1
    19    6   42 1
    20    7    8 1
    21    7   43 1
    22    7   44 1
    23    8    9 1
    24    8   11 am
    25    9   10 1
    26    9   45 1
    27    9   46 1
    28   10   47 1
    29   10   48 1
    30   11   12 2
    31   11   13 1
    32   13   18 ar
    33   13   14 ar
    34   14   15 ar
    35   14   49 1
    36   15   16 ar
    37   15   20 1
    38   16   17 ar
    39   16   50 1
    40   17   18 ar
    41   17   51 1
    42   18   19 1
    43   20   21 1
    44   20   52 1
    45   20   53 1
    46   21   30 2
    47   21   22 1
    48   22   27 ar
    49   22   23 ar
    50   23   24 ar
    51   23   54 1
    52   24   25 ar
    53   24   55 1
    54   25   26 ar
    55   25   56 1
    56   26   27 ar
    57   26   57 1
    58   27   28 1
    59   28   29 am
    60   28   31 2
    61   29   30 1
    62   29   59 1
@<TRIPOS>MOLECULE
CHEMBL480429
   31    33     0     0     0
SMALL
USER_CHARGES

@<TRIPOS>ATOM
      1 C1         -0.0167    1.3792    0.0096 C.ar      1 <0>        -0.1036
      2 C2          1.1686    2.0925    0.0021 C.ar      1 <0>        -0.1283
      3 C3          2.3774    1.4270   -0.0129 C.ar      1 <0>        -0.0688
      4 C4          2.4026    0.0331   -0.0206 C.ar      1 <0>        -0.0623
      5 C5          1.2048   -0.6804   -0.0130 C.ar      1 <0>        -0.0967
      6 C6          0.0021   -0.0041    0.0020 C.ar      1 <0>        -0.1281
      7 C7          3.6979   -0.6877   -0.0373 C.ar      1 <0>         0.2077
      8 C8          3.7025   -2.0907   -0.0506 C.ar      1 <0>        -0.1651
      9 C9          4.8877   -2.7646   -0.0665 C.ar      1 <0>        -0.0514
     10 C10         6.0820   -2.0158   -0.0690 C.ar      1 <0>        -0.1166
     11 C11         7.3352   -2.6484   -0.0856 C.ar      1 <0>        -0.0613
     12 C12         8.4778   -1.9040   -0.0876 C.ar      1 <0>        -0.1327
     13 C13         8.4290   -0.5162   -0.0735 C.ar      1 <0>        -0.0569
     14 C14         7.2119    0.1498   -0.0574 C.ar      1 <0>        -0.1181
     15 C15         6.0084   -0.6016   -0.0549 C.ar      1 <0>         0.1725
     16 N1          4.8224    0.0049   -0.0447 N.ar      1 <0>        -0.4387
     17 C16         7.1697    1.6231   -0.0419 C.2       1 <0>         0.5580
     18 O1          6.0996    2.2006   -0.0278 O.2       1 <0>        -0.5006
     19 N2          8.3171    2.3301   -0.0434 N.am      1 <0>        -0.8569
     20 H1         -0.9603    1.9042    0.0260 H         1 <0>         0.1243
     21 H2          1.1478    3.1722    0.0077 H         1 <0>         0.1263
     22 H3          3.3021    1.9849   -0.0191 H         1 <0>         0.1446
     23 H4          1.2183   -1.7603   -0.0189 H         1 <0>         0.1267
     24 H5         -0.9264   -0.5557    0.0079 H         1 <0>         0.1266
     25 H6          2.7698   -2.6353   -0.0480 H         1 <0>         0.1427
     26 H7          4.9109   -3.8443   -0.0766 H         1 <0>         0.1453
     27 H8          7.3945   -3.7268   -0.0964 H         1 <0>         0.1366
     28 H9          9.4362   -2.4017   -0.1001 H         1 <0>         0.1367
     29 H10         9.3482    0.0507   -0.0747 H         1 <0>         0.1351
     30 H11         9.1707    1.8695   -0.0547 H         1 <0>         0.3974
     31 H12         8.2894    3.2997   -0.0333 H         1 <0>         0.4059
@<TRIPOS>BOND
     1    1    6 ar
     2    1    2 ar
     3    1   20 1
     4    2    3 ar
     5    2   21 1
     6    3    4 ar
     7    3   22 1
     8    4    5 ar
     9    4    7 1
    10    5    6 ar
    11    5   23 1
    12    6   24 1
    13    7   16 ar
    14    7    8 ar
    15    8    9 ar
    16    8   25 1
    17    9   10 ar
    18    9   26 1
    19   10   15 ar
    20   10   11 ar
    21   11   12 ar
    22   11   27 1
    23   12   13 ar
    24   12   28 1
    25   13   14 ar
    26   13   29 1
    27   14   15 ar
    28   14   17 1
    29   15   16 ar
    30   17   18 2
    31   17   19 am
    32   19   30 1
    33   19   31 1
@<TRIPOS>MOLECULE
CHEMBL471966
   24    25     0     0     0
SMALL
USER_CHARGES

@<TRIPOS>ATOM
      1 C1         -0.0184    1.5028    0.0103 C.3       1 <0>        -0.1093
      2 C2          0.0021   -0.0041    0.0020 C.ar      1 <0>         0.1646
      3 C3          0.0054   -0.6757   -1.2176 C.ar      1 <0>        -0.1710
      4 C4          0.0244   -2.0416   -1.2430 C.ar      1 <0>        -0.0534
      5 C5          0.0400   -2.7288   -0.0142 C.ar      1 <0>        -0.1192
      6 C6          0.0604   -4.1326    0.0357 C.ar      1 <0>        -0.0616
      7 C7          0.0757   -4.7733    1.2388 C.ar      1 <0>        -0.1340
      8 C8          0.0715   -4.0600    2.4308 C.ar      1 <0>        -0.0576
      9 C9          0.0516   -2.6731    2.4266 C.ar      1 <0>        -0.1184
     10 C10         0.0355   -1.9822    1.1883 C.ar      1 <0>         0.1693
     11 N1          0.0217   -0.6495    1.1445 N.ar      1 <0>        -0.4460
     12 C11         0.0468   -1.9247    3.6970 C.2       1 <0>         0.5568
     13 O1          0.0293   -0.7089    3.6863 O.2       1 <0>        -0.4994
     14 N2          0.0617   -2.5882    4.8700 N.am      1 <0>        -0.8573
     15 H1          1.0042    1.8801    0.0026 H         1 <0>         0.0827
     16 H2         -0.5455    1.8639   -0.8728 H         1 <0>         0.0775
     17 H3         -0.5286    1.8543    0.9071 H         1 <0>         0.0826
     18 H4         -0.0073   -0.1177   -2.1422 H         1 <0>         0.1405
     19 H5          0.0269   -2.5793   -2.1796 H         1 <0>         0.1430
     20 H6          0.0636   -4.7048   -0.8802 H         1 <0>         0.1359
     21 H7          0.0909   -5.8529    1.2657 H         1 <0>         0.1363
     22 H8          0.0835   -4.5912    3.3711 H         1 <0>         0.1347
     23 H9          0.0757   -3.5581    4.8785 H         1 <0>         0.3972
     24 H10         0.0586   -2.0959    5.7058 H         1 <0>         0.4058
@<TRIPOS>BOND
     1    1    2 1
     2    1   15 1
     3    1   16 1
     4    1   17 1
     5    2   11 ar
     6    2    3 ar
     7    3    4 ar
     8    3   18 1
     9    4    5 ar
    10    4   19 1
    11    5   10 ar
    12    5    6 ar
    13    6    7 ar
    14    6   20 1
    15    7    8 ar
    16    7   21 1
    17    8    9 ar
    18    8   22 1
    19    9   10 ar
    20    9   12 1
    21   10   11 ar
    22   12   13 2
    23   12   14 am
    24   14   23 1
    25   14   24 1
@<TRIPOS>MOLECULE
CHEMBL419475
   48    51     0     0     0
SMALL
USER_CHARGES

@<TRIPOS>ATOM
      1 C1         -0.0167    1.3774    0.0096 C.ar      1 <0>        -0.0998
      2 C2          1.1628    2.0989    0.0022 C.ar      1 <0>        -0.0822
      3 C3          2.3901    1.4411   -0.0130 C.ar      1 <0>        -0.0842
      4 C4          2.4210    0.0291   -0.0208 C.ar      1 <0>         0.0992
      5 C5          1.2101   -0.6854   -0.0131 C.ar      1 <0>         0.0501
      6 C6          0.0021   -0.0041    0.0020 C.ar      1 <0>        -0.0828
      7 N1          1.5541   -2.0239   -0.0235 N.pl3     1 <0>        -0.5897
      8 H1          0.9423   -2.7767   -0.0217 H         1 <0>         0.4255
      9 C7          2.9199   -2.0865   -0.0368 C.2       1 <0>         0.2967
     10 N2          3.4185   -0.8725   -0.0351 N.2       1 <0>        -0.4371
     11 C8          3.7148   -3.3333   -0.0503 C.ar      1 <0>         0.0176
     12 C9          3.0740   -4.5730   -0.0559 C.ar      1 <0>        -0.1028
     13 C10         3.8215   -5.7325   -0.0689 C.ar      1 <0>        -0.0925
     14 C11         5.2035   -5.6681   -0.0761 C.ar      1 <0>        -0.1512
     15 C12         5.8450   -4.4422   -0.0701 C.ar      1 <0>        -0.0879
     16 C13         5.1092   -3.2753   -0.0634 C.ar      1 <0>        -0.0657
     17 C14         6.0137   -6.9387   -0.0898 C.3       1 <0>         0.0431
     18 N3          6.2693   -7.3414   -1.4792 N.4       1 <0>        -0.3818
     19 C15         4.9978   -7.6746   -2.1323 C.3       1 <0>        -0.0134
     20 C16         5.2494   -8.0167   -3.6024 C.3       1 <0>        -0.1452
     21 C17         6.1980   -9.2160   -3.6867 C.3       1 <0>        -0.1391
     22 C18         7.4922   -8.8841   -2.9383 C.3       1 <0>        -0.1465
     23 C19         7.1575   -8.5100   -1.4928 C.3       1 <0>        -0.0070
     24 C20         3.6461    2.2117   -0.0213 C.2       1 <0>         0.5587
     25 O1          4.7151    1.6321   -0.0346 O.2       1 <0>        -0.5152
     26 N4          3.6101    3.5590   -0.0142 N.am      1 <0>        -0.8518
     27 H2         -0.9622    1.8990    0.0260 H         1 <0>         0.1454
     28 H3          1.1320    3.1784    0.0079 H         1 <0>         0.1404
     29 H4         -0.9267   -0.5551    0.0082 H         1 <0>         0.1340
     30 H5          1.9952   -4.6246   -0.0496 H         1 <0>         0.1332
     31 H6          3.3268   -6.6925   -0.0733 H         1 <0>         0.1380
     32 H7          6.9242   -4.3988   -0.0750 H         1 <0>         0.1409
     33 H8          5.6111   -2.3190   -0.0637 H         1 <0>         0.1554
     34 H9          6.9623   -6.7703    0.4201 H         1 <0>         0.1397
     35 H10         5.4614   -7.7273    0.4213 H         1 <0>         0.1366
     36 H11         4.5467   -8.5318   -1.6324 H         1 <0>         0.1278
     37 H12         4.3226   -6.8213   -2.0687 H         1 <0>         0.1301
     38 H13         4.3043   -8.2655   -4.0851 H         1 <0>         0.1107
     39 H14         5.7002   -7.1601   -4.1034 H         1 <0>         0.0870
     40 H15         5.7263  -10.0865   -3.2309 H         1 <0>         0.0816
     41 H16         6.4252   -9.4282   -4.7314 H         1 <0>         0.0938
     42 H17         8.1503   -9.7530   -2.9463 H         1 <0>         0.1124
     43 H18         7.9896   -8.0455   -3.4256 H         1 <0>         0.0877
     44 H19         8.0768   -8.2733   -0.9571 H         1 <0>         0.1309
     45 H20         6.6604   -9.3493   -1.0065 H         1 <0>         0.1287
     46 H21         2.7574    4.0213   -0.0036 H         1 <0>         0.4004
     47 H22         4.4368    4.0663   -0.0197 H         1 <0>         0.4080
     48 H23         6.7096   -6.5799   -1.9735 H         1 <0>         0.4227
@<TRIPOS>BOND
     1    1    6 ar
     2    1    2 ar
     3    1   27 1
     4    2    3 ar
     5    2   28 1
     6    3    4 ar
     7    3   24 1
     8    4   10 1
     9    4    5 ar
    10    5    6 ar
    11    5    7 1
    12    6   29 1
    13    7    8 1
    14    7    9 1
    15    9   10 2
    16    9   11 1
    17   11   16 ar
    18   11   12 ar
    19   12   13 ar
    20   12   30 1
    21   13   14 ar
    22   13   31 1
    23   14   15 ar
    24   14   17 1
    25   15   16 ar
    26   15   32 1
    27   16   33 1
    28   17   18 1
    29   17   34 1
    30   17   35 1
    31   18   23 1
    32   18   19 1
    33   18   48 1
    34   19   20 1
    35   19   36 1
    36   19   37 1
    37   20   21 1
    38   20   38 1
    39   20   39 1
    40   21   22 1
    41   21   40 1
    42   21   41 1
    43   22   23 1
    44   22   42 1
    45   22   43 1
    46   23   44 1
    47   23   45 1
    48   24   25 2
    49   24   26 am
    50   26   46 1
    51   26   47 1
@<TRIPOS>MOLECULE
CHEMBL432166
   45    48     0     0     0
SMALL
USER_CHARGES

@<TRIPOS>ATOM
      1 C1         -0.0167    1.3774    0.0096 C.ar      1 <0>        -0.1131
      2 C2          1.1628    2.0989    0.0022 C.ar      1 <0>        -0.0853
      3 C3          2.3901    1.4411   -0.0130 C.ar      1 <0>        -0.0906
      4 C4          2.4210    0.0291   -0.0208 C.ar      1 <0>         0.1063
      5 C5          1.2101   -0.6854   -0.0131 C.ar      1 <0>         0.0395
      6 C6          0.0021   -0.0041    0.0020 C.ar      1 <0>        -0.0791
      7 N1          1.5541   -2.0239   -0.0235 N.pl3     1 <0>        -0.5938
      8 H1          0.9423   -2.7767   -0.0217 H         1 <0>         0.4248
      9 C7          2.9199   -2.0865   -0.0368 C.2       1 <0>         0.3315
     10 N2          3.4185   -0.8725   -0.0351 N.2       1 <0>        -0.4541
     11 C8          3.7148   -3.3333   -0.0503 C.ar      1 <0>        -0.0330
     12 C9          3.0740   -4.5730   -0.0559 C.ar      1 <0>        -0.0997
     13 C10         3.8215   -5.7325   -0.0689 C.ar      1 <0>        -0.1145
     14 C11         5.2035   -5.6681   -0.0761 C.ar      1 <0>        -0.0602
     15 C12         5.8450   -4.4422   -0.0701 C.ar      1 <0>        -0.0964
     16 C13         5.1092   -3.2753   -0.0634 C.ar      1 <0>        -0.0626
     17 C14         6.0137   -6.9387   -0.0898 C.3       1 <0>         0.0902
     18 N3          6.2693   -7.3414   -1.4792 N.3       1 <0>        -0.5313
     19 C15         5.0209   -7.7231   -2.1553 C.3       1 <0>         0.0132
     20 C16         5.3243   -8.0773   -3.6135 C.3       1 <0>         0.0629
     21 O1          6.3017   -9.1206   -3.6521 O.3       1 <0>        -0.3853
     22 C17         7.5306   -8.7825   -3.0032 C.3       1 <0>         0.0629
     23 C18         7.2495   -8.4355   -1.5388 C.3       1 <0>         0.0171
     24 C19         3.6461    2.2117   -0.0213 C.2       1 <0>         0.5577
     25 O2          4.7151    1.6321   -0.0346 O.2       1 <0>        -0.5109
     26 N4          3.6101    3.5590   -0.0142 N.am      1 <0>        -0.8553
     27 H2         -0.9622    1.8990    0.0260 H         1 <0>         0.1401
     28 H3          1.1320    3.1784    0.0079 H         1 <0>         0.1357
     29 H4         -0.9267   -0.5551    0.0082 H         1 <0>         0.1301
     30 H5          1.9952   -4.6246   -0.0496 H         1 <0>         0.1205
     31 H6          3.3268   -6.6925   -0.0733 H         1 <0>         0.1264
     32 H7          6.9242   -4.3988   -0.0750 H         1 <0>         0.1332
     33 H8          5.6111   -2.3190   -0.0637 H         1 <0>         0.1438
     34 H9          6.9623   -6.7703    0.4201 H         1 <0>         0.0898
     35 H10         5.4614   -7.7273    0.4213 H         1 <0>         0.0481
     36 H11         4.5850   -8.5873   -1.6540 H         1 <0>         0.0436
     37 H12         4.3192   -6.8897   -2.1216 H         1 <0>         0.0902
     38 H13         4.4113   -8.4156   -4.1034 H         1 <0>         0.0983
     39 H14         5.7102   -7.1978   -4.1290 H         1 <0>         0.0607
     40 H15         8.2132   -9.6309   -3.0517 H         1 <0>         0.0998
     41 H16         7.9806   -7.9235   -3.5009 H         1 <0>         0.0613
     42 H17         8.1747   -8.1221   -1.0550 H         1 <0>         0.0889
     43 H18         6.8493   -9.3110   -1.0276 H         1 <0>         0.0448
     44 H19         2.7574    4.0213   -0.0036 H         1 <0>         0.3985
     45 H20         4.4368    4.0663   -0.0197 H         1 <0>         0.4054
@<TRIPOS>BOND
     1    1    6 ar
     2    1    2 ar
     3    1   27 1
     4    2    3 ar
     5    2   28 1
     6    3    4 ar
     7    3   24 1
     8    4   10 1
     9    4    5 ar
    10    5    6 ar
    11    5    7 1
    12    6   29 1
    13    7    8 1
    14    7    9 1
    15    9   10 2
    16    9   11 1
    17   11   16 ar
    18   11   12 ar
    19   12   13 ar
    20   12   30 1
    21   13   14 ar
    22   13   31 1
    23   14   15 ar
    24   14   17 1
    25   15   16 ar
    26   15   32 1
    27   16   33 1
    28   17   18 1
    29   17   34 1
    30   17   35 1
    31   18   23 1
    32   18   19 1
    33   19   20 1
    34   19   36 1
    35   19   37 1
    36   20   21 1
    37   20   38 1
    38   20   39 1
    39   21   22 1
    40   22   23 1
    41   22   40 1
    42   22   41 1
    43   23   42 1
    44   23   43 1
    45   24   25 2
    46   24   26 am
    47   26   44 1
    48   26   45 1
@<TRIPOS>MOLECULE
CHEMBL312135
   45    48     0     0     0
SMALL
USER_CHARGES

@<TRIPOS>ATOM
      1 C1         -0.0167    1.3774    0.0096 C.ar      1 <0>        -0.0999
      2 C2          1.1628    2.0989    0.0022 C.ar      1 <0>        -0.0821
      3 C3          2.3901    1.4411   -0.0130 C.ar      1 <0>        -0.0844
      4 C4          2.4210    0.0291   -0.0208 C.ar      1 <0>         0.0992
      5 C5          1.2101   -0.6854   -0.0131 C.ar      1 <0>         0.0500
      6 C6          0.0021   -0.0041    0.0020 C.ar      1 <0>        -0.0827
      7 N1          1.5541   -2.0239   -0.0235 N.pl3     1 <0>        -0.5897
      8 H1          0.9423   -2.7767   -0.0217 H         1 <0>         0.4256
      9 C7          2.9199   -2.0865   -0.0368 C.2       1 <0>         0.2968
     10 N2          3.4185   -0.8725   -0.0351 N.2       1 <0>        -0.4373
     11 C8          3.7148   -3.3333   -0.0503 C.ar      1 <0>         0.0176
     12 C9          3.0740   -4.5730   -0.0559 C.ar      1 <0>        -0.1026
     13 C10         3.8215   -5.7325   -0.0689 C.ar      1 <0>        -0.0888
     14 C11         5.2035   -5.6681   -0.0761 C.ar      1 <0>        -0.1519
     15 C12         5.8450   -4.4422   -0.0701 C.ar      1 <0>        -0.0893
     16 C13         5.1092   -3.2753   -0.0634 C.ar      1 <0>        -0.0670
     17 C14         6.0137   -6.9387   -0.0898 C.3       1 <0>         0.0481
     18 N3          6.2693   -7.3414   -1.4792 N.4       1 <0>        -0.3935
     19 C15         7.1946   -6.3785   -2.1296 C.3       1 <0>        -0.0075
     20 C16         7.7905   -7.1967   -3.3026 C.3       1 <0>        -0.1454
     21 C17         7.9449   -8.6099   -2.6952 C.3       1 <0>        -0.1451
     22 C18         6.9596   -8.6491   -1.5124 C.3       1 <0>        -0.0089
     23 C19         3.6461    2.2117   -0.0213 C.2       1 <0>         0.5589
     24 O1          4.7151    1.6321   -0.0346 O.2       1 <0>        -0.5154
     25 N4          3.6101    3.5590   -0.0142 N.am      1 <0>        -0.8519
     26 H2         -0.9622    1.8990    0.0260 H         1 <0>         0.1454
     27 H3          1.1320    3.1784    0.0079 H         1 <0>         0.1404
     28 H4         -0.9267   -0.5551    0.0082 H         1 <0>         0.1340
     29 H5          1.9952   -4.6246   -0.0496 H         1 <0>         0.1330
     30 H6          3.3268   -6.6925   -0.0733 H         1 <0>         0.1380
     31 H7          6.9242   -4.3988   -0.0750 H         1 <0>         0.1390
     32 H8          5.6111   -2.3190   -0.0637 H         1 <0>         0.1551
     33 H9          6.9623   -6.7703    0.4201 H         1 <0>         0.1373
     34 H10         5.4614   -7.7273    0.4213 H         1 <0>         0.1371
     35 H11         6.6483   -5.5124   -2.5031 H         1 <0>         0.1344
     36 H12         7.9786   -6.0711   -1.4376 H         1 <0>         0.1339
     37 H13         7.1040   -7.2135   -4.1491 H         1 <0>         0.0971
     38 H14         8.7600   -6.7961   -3.5989 H         1 <0>         0.1167
     39 H15         7.6821   -9.3691   -3.4318 H         1 <0>         0.1045
     40 H16         8.9653   -8.7608   -2.3428 H         1 <0>         0.1039
     41 H17         7.5036   -8.8055   -0.5809 H         1 <0>         0.1314
     42 H18         6.2336   -9.4485   -1.6603 H         1 <0>         0.1318
     43 H19         2.7574    4.0213   -0.0036 H         1 <0>         0.4004
     44 H20         4.4368    4.0663   -0.0197 H         1 <0>         0.4080
     45 H21         5.4020   -7.3927   -1.9922 H         1 <0>         0.4258
@<TRIPOS>BOND
     1    1    6 ar
     2    1    2 ar
     3    1   26 1
     4    2    3 ar
     5    2   27 1
     6    3    4 ar
     7    3   23 1
     8    4   10 1
     9    4    5 ar
    10    5    6 ar
    11    5    7 1
    12    6   28 1
    13    7    8 1
    14    7    9 1
    15    9   10 2
    16    9   11 1
    17   11   16 ar
    18   11   12 ar
    19   12   13 ar
    20   12   29 1
    21   13   14 ar
    22   13   30 1
    23   14   15 ar
    24   14   17 1
    25   15   16 ar
    26   15   31 1
    27   16   32 1
    28   17   18 1
    29   17   33 1
    30   17   34 1
    31   18   22 1
    32   18   19 1
    33   18   45 1
    34   19   20 1
    35   19   35 1
    36   19   36 1
    37   20   21 1
    38   20   37 1
    39   20   38 1
    40   21   22 1
    41   21   39 1
    42   21   40 1
    43   22   41 1
    44   22   42 1
    45   23   24 2
    46   23   25 am
    47   25   43 1
    48   25   44 1
@<TRIPOS>MOLECULE
CHEMBL372778
   72    77     0     0     0
SMALL
USER_CHARGES

@<TRIPOS>ATOM
      1 C1          2.3933    3.6677    4.8466 C.ar      1 <0>        -0.1082
      2 C2          3.7306    3.9856    5.0010 C.ar      1 <0>        -0.1191
      3 C3          4.7049    3.1319    4.5247 C.ar      1 <0>        -0.1014
      4 C4          4.3392    1.9480    3.8873 C.ar      1 <0>        -0.0663
      5 C5          2.9906    1.6328    3.7346 C.ar      1 <0>        -0.1013
      6 C6          2.0246    2.4938    4.2147 C.ar      1 <0>        -0.1189
      7 C7          5.3823    1.0265    3.3727 C.ar      1 <0>         0.0172
      8 C8          6.7310    1.3391    3.5302 C.ar      1 <0>        -0.1344
      9 C9          7.6969    0.4782    3.0501 C.ar      1 <0>        -0.0162
     10 C10         7.3282   -0.6930    2.4131 C.ar      1 <0>        -0.6820
     11 C11         5.9909   -1.0081    2.2536 C.ar      1 <0>        -0.0152
     12 C12         5.0166   -0.1574    2.7354 C.ar      1 <0>        -0.1338
     13 S1          8.5668   -1.7872    1.8020 S.o2      1 <0>         2.6800
     14 O1          7.9617   -2.5468    0.7647 O.2       1 <0>        -0.9498
     15 O2          9.7331   -1.0033    1.5913 O.2       1 <0>        -0.9519
     16 N1          8.9248   -2.8505    3.0201 N.pl3     1 <0>        -0.9893
     17 C13         9.9639   -2.5155    3.9508 C.3       1 <0>         0.1271
     18 C14        11.3031   -2.9801    3.3541 C.3       1 <0>        -0.1751
     19 C15        11.4992   -4.4298    3.5120 C.3       1 <0>         0.1105
     20 N2         10.3935   -5.1730    2.8625 N.am      1 <0>        -0.5985
     21 C16         9.1159   -5.2733    3.5107 C.3       1 <0>         0.1081
     22 C17         8.1541   -4.1203    3.1175 C.3       1 <0>         0.0935
     23 C18        10.5871   -5.7549    1.6623 C.2       1 <0>         0.5615
     24 O3          9.7132   -6.4433    1.1726 O.2       1 <0>        -0.5233
     25 C19        11.8625   -5.5560    0.9415 C.ar      1 <0>        -0.1235
     26 C20        12.3004   -4.2665    0.6343 C.ar      1 <0>        -0.0926
     27 C21        13.4914   -4.0878   -0.0380 C.ar      1 <0>        -0.1164
     28 C22        14.2516   -5.1833   -0.4083 C.ar      1 <0>        -0.0830
     29 C23        13.8234   -6.4637   -0.1071 C.ar      1 <0>        -0.0779
     30 C24        12.6367   -6.6561    0.5702 C.ar      1 <0>        -0.0576
     31 C25        14.6574   -7.6508   -0.5147 C.3       1 <0>        -0.0195
     32 C26        15.6272   -7.9862    0.5890 C.2       1 <0>         0.1416
     33 C27        16.5574   -9.1042    0.4305 C.ar      1 <0>        -0.0602
     34 C28        16.5804   -9.8854   -0.7265 C.ar      1 <0>        -0.0970
     35 C29        17.4688  -10.9194   -0.8272 C.ar      1 <0>        -0.0872
     36 C30        18.3509  -11.2056    0.2069 C.ar      1 <0>        -0.1106
     37 C31        18.3507  -10.4523    1.3603 C.ar      1 <0>        -0.0551
     38 C32        17.4539   -9.3920    1.4849 C.ar      1 <0>        -0.1260
     39 C33        17.4047   -8.5515    2.6876 C.2       1 <0>         0.5287
     40 N3         16.5099   -7.5427    2.7381 N.am      1 <0>        -0.5342
     41 N4         15.6406   -7.2789    1.6793 N.2       1 <0>        -0.2214
     42 O4         18.1571   -8.7610    3.6224 O.2       1 <0>        -0.5220
     43 H1          1.6342    4.3364    5.2248 H         1 <0>         0.1264
     44 H2          4.0129    4.9036    5.4949 H         1 <0>         0.1279
     45 H3          5.7488    3.3812    4.6455 H         1 <0>         0.1277
     46 H4          2.7017    0.7167    3.2410 H         1 <0>         0.1279
     47 H5          0.9790    2.2503    4.0971 H         1 <0>         0.1280
     48 H6          7.0199    2.2536    4.0268 H         1 <0>         0.1365
     49 H7          8.7426    0.7195    3.1716 H         1 <0>         0.1417
     50 H8          5.7085   -1.9236    1.7552 H         1 <0>         0.1420
     51 H9          3.9728   -0.4065    2.6143 H         1 <0>         0.1367
     52 H10         9.9847   -1.4371    4.1077 H         1 <0>         0.0827
     53 H11         9.7871   -3.0232    4.8990 H         1 <0>         0.0880
     54 H12        11.3238   -2.7326    2.2928 H         1 <0>         0.0807
     55 H13        12.1163   -2.4552    3.8554 H         1 <0>         0.0929
     56 H14        12.4454   -4.7178    3.0539 H         1 <0>         0.0925
     57 H15        11.5253   -4.6768    4.5733 H         1 <0>         0.0806
     58 H16         8.6565   -6.2239    3.2396 H         1 <0>         0.0974
     59 H17         9.2654   -5.2514    4.5902 H         1 <0>         0.0823
     60 H18         7.3770   -4.0166    3.8748 H         1 <0>         0.0833
     61 H19         7.6955   -4.3420    2.1539 H         1 <0>         0.1013
     62 H20        11.7077   -3.4108    0.9222 H         1 <0>         0.1284
     63 H21        13.8314   -3.0908   -0.2762 H         1 <0>         0.1305
     64 H22        15.1830   -5.0379   -0.9352 H         1 <0>         0.1259
     65 H23        12.3055   -7.6561    0.8085 H         1 <0>         0.1264
     66 H24        14.0069   -8.5058   -0.6991 H         1 <0>         0.1082
     67 H25        15.2097   -7.4119   -1.4235 H         1 <0>         0.1090
     68 H26        15.8995   -9.6740   -1.5376 H         1 <0>         0.1423
     69 H27        17.4848  -11.5223   -1.7231 H         1 <0>         0.1368
     70 H28        19.0440  -12.0277    0.1057 H         1 <0>         0.1374
     71 H29        19.0393  -10.6805    2.1603 H         1 <0>         0.1433
     72 H30        16.4726   -6.9839    3.5301 H         1 <0>         0.4359
@<TRIPOS>BOND
     1    1    6 ar
     2    1    2 ar
     3    1   43 1
     4    2    3 ar
     5    2   44 1
     6    3    4 ar
     7    3   45 1
     8    4    5 ar
     9    4    7 1
    10    5    6 ar
    11    5   46 1
    12    6   47 1
    13    7   12 ar
    14    7    8 ar
    15    8    9 ar
    16    8   48 1
    17    9   10 ar
    18    9   49 1
    19   10   11 ar
    20   10   13 1
    21   11   12 ar
    22   11   50 1
    23   12   51 1
    24   13   14 2
    25   13   15 2
    26   13   16 1
    27   16   22 1
    28   16   17 1
    29   17   18 1
    30   17   52 1
    31   17   53 1
    32   18   19 1
    33   18   54 1
    34   18   55 1
    35   19   20 1
    36   19   56 1
    37   19   57 1
    38   20   21 1
    39   20   23 am
    40   21   22 1
    41   21   58 1
    42   21   59 1
    43   22   60 1
    44   22   61 1
    45   23   24 2
    46   23   25 1
    47   25   30 ar
    48   25   26 ar
    49   26   27 ar
    50   26   62 1
    51   27   28 ar
    52   27   63 1
    53   28   29 ar
    54   28   64 1
    55   29   30 ar
    56   29   31 1
    57   30   65 1
    58   31   32 1
    59   31   66 1
    60   31   67 1
    61   32   41 2
    62   32   33 1
    63   33   38 ar
    64   33   34 ar
    65   34   35 ar
    66   34   68 1
    67   35   36 ar
    68   35   69 1
    69   36   37 ar
    70   36   70 1
    71   37   38 ar
    72   37   71 1
    73   38   39 1
    74   39   40 am
    75   39   42 2
    76   40   41 1
    77   40   72 1
@<TRIPOS>MOLECULE
CHEMBL370838
   43    46     0     0     0
SMALL
USER_CHARGES

@<TRIPOS>ATOM
      1 C1         -0.0187    1.5258    0.0104 C.3       1 <0>        -0.1404
      2 C2          0.0021   -0.0041    0.0020 C.3       1 <0>        -0.1226
      3 C3         -1.4286   -0.5670    0.1237 C.3       1 <0>        -0.1517
      4 C4         -1.3908   -1.3558    1.4144 C.2       1 <0>         0.5275
      5 O1         -2.3221   -1.9690    1.8901 O.2       1 <0>        -0.4677
      6 N1         -0.1658   -1.2697    1.9475 N.am      1 <0>        -0.5309
      7 C5          0.6979   -0.5340    1.2368 C.2       1 <0>         0.5283
      8 O2          1.8543   -0.3258    1.5350 O.2       1 <0>        -0.4610
      9 C6          0.1839   -1.8982    3.1520 C.ar      1 <0>         0.0757
     10 C7          0.6968   -3.1876    3.1402 C.ar      1 <0>        -0.0548
     11 C8          1.0409   -3.8041    4.3276 C.ar      1 <0>        -0.0778
     12 C9          0.8746   -3.1386    5.5283 C.ar      1 <0>        -0.0590
     13 C10         0.3641   -1.8539    5.5453 C.ar      1 <0>        -0.1419
     14 C11         0.0229   -1.2286    4.3595 C.ar      1 <0>         0.1210
     15 F1         -0.4708    0.0288    4.3753 F         1 <0>        -0.1307
     16 C12         1.5978   -5.2044    4.3145 C.3       1 <0>        -0.0162
     17 C13         3.0994   -5.1467    4.2011 C.2       1 <0>         0.1353
     18 C14         3.8780   -6.3847    4.1620 C.ar      1 <0>        -0.0596
     19 C15         3.2701   -7.6399    4.2265 C.ar      1 <0>        -0.0979
     20 C16         4.0410   -8.7679    4.1859 C.ar      1 <0>        -0.0871
     21 C17         5.4235   -8.6841    4.0816 C.ar      1 <0>        -0.1105
     22 C18         6.0509   -7.4593    4.0165 C.ar      1 <0>        -0.0543
     23 C19         5.2848   -6.2951    4.0553 C.ar      1 <0>        -0.1253
     24 C20         5.8929   -4.9606    3.9889 C.2       1 <0>         0.5283
     25 O3          7.1008   -4.8329    3.8961 O.2       1 <0>        -0.5203
     26 N2          5.0886   -3.8780    4.0323 N.am      1 <0>        -0.5321
     27 H1          5.4845   -2.9936    3.9889 H         1 <0>         0.4375
     28 N3          3.7021   -3.9972    4.1327 N.2       1 <0>        -0.2188
     29 H2          1.0039    1.9031    0.0027 H         1 <0>         0.0744
     30 H3         -0.5459    1.8868   -0.8726 H         1 <0>         0.0805
     31 H4         -0.5289    1.8773    0.9072 H         1 <0>         0.0636
     32 H5          0.4873   -0.3750   -0.9008 H         1 <0>         0.1297
     33 H6         -2.1552    0.2429    0.1902 H         1 <0>         0.1271
     34 H7         -1.6568   -1.2202   -0.7186 H         1 <0>         0.1267
     35 H8          0.8266   -3.7090    2.2033 H         1 <0>         0.1347
     36 H9          1.1439   -3.6237    6.4550 H         1 <0>         0.1407
     37 H10         0.2350   -1.3369    6.4847 H         1 <0>         0.1465
     38 H11         1.3225   -5.7136    5.2380 H         1 <0>         0.1132
     39 H12         1.1898   -5.7497    3.4634 H         1 <0>         0.1095
     40 H13         2.1961   -7.7191    4.3085 H         1 <0>         0.1421
     41 H14         3.5685   -9.7378    4.2360 H         1 <0>         0.1369
     42 H15         6.0128   -9.5886    4.0516 H         1 <0>         0.1376
     43 H16         7.1263   -7.4016    3.9362 H         1 <0>         0.1436
@<TRIPOS>BOND
     1    1    2 1
     2    1   29 1
     3    1   30 1
     4    1   31 1
     5    2    7 1
     6    2    3 1
     7    2   32 1
     8    3    4 1
     9    3   33 1
    10    3   34 1
    11    4    5 2
    12    4    6 am
    13    6    7 am
    14    6    9 1
    15    7    8 2
    16    9   14 ar
    17    9   10 ar
    18   10   11 ar
    19   10   35 1
    20   11   12 ar
    21   11   16 1
    22   12   13 ar
    23   12   36 1
    24   13   14 ar
    25   13   37 1
    26   14   15 1
    27   16   17 1
    28   16   38 1
    29   16   39 1
    30   17   28 2
    31   17   18 1
    32   18   23 ar
    33   18   19 ar
    34   19   20 ar
    35   19   40 1
    36   20   21 ar
    37   20   41 1
    38   21   22 ar
    39   21   42 1
    40   22   23 ar
    41   22   43 1
    42   23   24 1
    43   24   25 2
    44   24   26 am
    45   26   27 1
    46   26   28 1
@<TRIPOS>MOLECULE
CHEMBL370838__1
   43    46     0     0     0
SMALL
USER_CHARGES

@<TRIPOS>ATOM
      1 C1         -0.0187    1.5258    0.0104 C.3       1 <0>        -0.1392
      2 C2          0.0021   -0.0041    0.0020 C.3       1 <0>        -0.1232
      3 C3          0.8138   -0.5293   -1.1996 C.3       1 <0>        -0.1515
      4 C4          1.9448   -1.2998   -0.5540 C.2       1 <0>         0.5275
      5 O1          2.8268   -1.8819   -1.1481 O.2       1 <0>        -0.4676
      6 N1          1.8174   -1.2364    0.7771 N.am      1 <0>        -0.5308
      7 C5          0.7598   -0.5330    1.2002 C.2       1 <0>         0.5285
      8 O2          0.4573   -0.3487    2.3596 O.2       1 <0>        -0.4610
      9 C6          2.7178   -1.8563    1.6564 C.ar      1 <0>         0.0757
     10 C7          3.8308   -1.1650    2.1138 C.ar      1 <0>        -0.0547
     11 C8          4.7156   -1.7776    2.9798 C.ar      1 <0>        -0.0778
     12 C9          4.4945   -3.0791    3.3916 C.ar      1 <0>        -0.0590
     13 C10         3.3872   -3.7720    2.9388 C.ar      1 <0>        -0.1418
     14 C11         2.4941   -3.1626    2.0759 C.ar      1 <0>         0.1209
     15 F1          1.4090   -3.8376    1.6376 F         1 <0>        -0.1307
     16 C12         5.9241   -1.0265    3.4763 C.3       1 <0>        -0.0162
     17 C13         5.5750   -0.2978    4.7484 C.2       1 <0>         0.1353
     18 C14         6.5854    0.5138    5.4272 C.ar      1 <0>        -0.0596
     19 C15         7.8841    0.6407    4.9306 C.ar      1 <0>        -0.0979
     20 C16         8.7925    1.4113    5.6010 C.ar      1 <0>        -0.0871
     21 C17         8.4425    2.0712    6.7719 C.ar      1 <0>        -0.1105
     22 C18         7.1687    1.9641    7.2857 C.ar      1 <0>        -0.0543
     23 C19         6.2250    1.1843    6.6184 C.ar      1 <0>        -0.1253
     24 C20         4.8515    1.0308    7.1137 C.2       1 <0>         0.5284
     25 O3          4.4943    1.5895    8.1355 O.2       1 <0>        -0.5202
     26 N2          3.9923    0.2595    6.4154 N.am      1 <0>        -0.5321
     27 H1          3.0834    0.1543    6.7377 H         1 <0>         0.4375
     28 N3          4.3748   -0.3863    5.2394 N.2       1 <0>        -0.2187
     29 H2          1.0039    1.9031    0.0027 H         1 <0>         0.0625
     30 H3         -0.5459    1.8868   -0.8726 H         1 <0>         0.0806
     31 H4         -0.5289    1.8773    0.9072 H         1 <0>         0.0743
     32 H5         -1.0132   -0.4002   -0.0153 H         1 <0>         0.1300
     33 H6          0.2031   -1.1889   -1.8162 H         1 <0>         0.1266
     34 H7          1.2028    0.2993   -1.7914 H         1 <0>         0.1272
     35 H8          4.0052   -0.1487    1.7925 H         1 <0>         0.1345
     36 H9          5.1886   -3.5554    4.0682 H         1 <0>         0.1407
     37 H10         3.2174   -4.7885    3.2618 H         1 <0>         0.1465
     38 H11         6.7341   -1.7295    3.6709 H         1 <0>         0.1132
     39 H12         6.2406   -0.3074    2.7208 H         1 <0>         0.1094
     40 H13         8.1695    0.1323    4.0215 H         1 <0>         0.1421
     41 H14         9.7966    1.5080    5.2150 H         1 <0>         0.1369
     42 H15         9.1767    2.6744    7.2852 H         1 <0>         0.1376
     43 H16         6.9035    2.4794    8.1970 H         1 <0>         0.1436
@<TRIPOS>BOND
     1    1    2 1
     2    1   29 1
     3    1   30 1
     4    1   31 1
     5    2    7 1
     6    2    3 1
     7    2   32 1
     8    3    4 1
     9    3   33 1
    10    3   34 1
    11    4    5 2
    12    4    6 am
    13    6    7 am
    14    6    9 1
    15    7    8 2
    16    9   14 ar
    17    9   10 ar
    18   10   11 ar
    19   10   35 1
    20   11   12 ar
    21   11   16 1
    22   12   13 ar
    23   12   36 1
    24   13   14 ar
    25   13   37 1
    26   14   15 1
    27   16   17 1
    28   16   38 1
    29   16   39 1
    30   17   28 2
    31   17   18 1
    32   18   23 ar
    33   18   19 ar
    34   19   20 ar
    35   19   40 1
    36   20   21 ar
    37   20   41 1
    38   21   22 ar
    39   21   42 1
    40   22   23 ar
    41   22   43 1
    42   23   24 1
    43   24   25 2
    44   24   26 am
    45   26   27 1
    46   26   28 1
@<TRIPOS>MOLECULE
CHEMBL203982
   49    54     0     0     0
SMALL
USER_CHARGES

@<TRIPOS>ATOM
      1 C1          0.0169    1.3600    0.2708 C.ar      1 <0>        -0.0294
      2 C2          1.1856    2.0632    0.2510 C.ar      1 <0>        -0.1395
      3 C3          2.3869    1.4251   -0.0540 C.ar      1 <0>         0.1629
      4 C4          2.3862    0.0496   -0.3426 C.ar      1 <0>        -0.1051
      5 C5          1.1970   -0.6660   -0.3230 C.ar      1 <0>        -0.0294
      6 C6          0.0057   -0.0106   -0.0146 C.ar      1 <0>        -0.1599
      7 C7         -1.2655   -0.7606    0.0106 C.2       1 <0>         0.5694
      8 O1         -2.2839   -0.2449   -0.4078 O.2       1 <0>        -0.5297
      9 N1         -1.2972   -2.0169    0.4975 N.am      1 <0>        -0.6132
     10 C8         -0.1105   -2.6141    1.1304 C.3       1 <0>         0.0621
     11 C9         -0.5267   -3.1950    2.4866 C.3       1 <0>         0.0457
     12 O2         -1.6511   -4.0587    2.3037 O.3       1 <0>        -0.3775
     13 C10        -2.8183   -3.4020    1.8035 C.3       1 <0>         0.0470
     14 C11        -2.5212   -2.8297    0.4174 C.3       1 <0>         0.0764
     15 C12         3.7881   -0.3177   -0.6207 C.ar      1 <0>        -0.0880
     16 C13         4.4192   -1.5018   -0.9616 C.ar      1 <0>        -0.0222
     17 C14         5.7976   -1.5227   -1.1633 C.ar      1 <0>        -0.1745
     18 C15         6.5432   -0.3405   -1.0192 C.ar      1 <0>         0.0156
     19 C16         5.9238    0.8274   -0.6832 C.ar      1 <0>        -0.1281
     20 C17         4.5410    0.8598   -0.4799 C.ar      1 <0>         0.1889
     21 N2          3.6842    1.8869   -0.1419 N.pl3     1 <0>        -0.6030
     22 H1          3.9558    2.8052    0.0128 H         1 <0>         0.4237
     23 C18         6.9413    1.9461   -0.5909 C.3       1 <0>        -0.0773
     24 C19         8.3085    1.2379   -0.4826 C.3       1 <0>        -0.1199
     25 C20         8.0315   -0.1095   -1.1827 C.3       1 <0>        -0.0873
     26 C21         6.1938   -2.8986   -1.5119 C.2       1 <0>         0.5651
     27 O3          7.3317   -3.2544   -1.7503 O.2       1 <0>        -0.5235
     28 N3          5.1180   -3.7043   -1.5288 N.am      1 <0>        -0.7253
     29 C22         3.9311   -2.9104   -1.1903 C.3       1 <0>         0.1400
     30 H2         -0.9071    1.8639    0.5129 H         1 <0>         0.1405
     31 H3          1.1802    3.1203    0.4725 H         1 <0>         0.1352
     32 H4          1.1947   -1.7232   -0.5441 H         1 <0>         0.1348
     33 H5          0.2833   -3.4083    0.4962 H         1 <0>         0.0812
     34 H6          0.6516   -1.8488    1.2772 H         1 <0>         0.1043
     35 H7          0.3026   -3.7617    2.9099 H         1 <0>         0.1090
     36 H8         -0.7969   -2.3838    3.1627 H         1 <0>         0.0580
     37 H9         -3.6377   -4.1176    1.7354 H         1 <0>         0.1098
     38 H10        -3.0969   -2.5916    2.4771 H         1 <0>         0.0573
     39 H11        -3.3547   -2.2071    0.0922 H         1 <0>         0.1047
     40 H12        -2.3742   -3.6460   -0.2899 H         1 <0>         0.0792
     41 H13         6.9057    2.5650   -1.4875 H         1 <0>         0.0824
     42 H14         6.7578    2.5524    0.2961 H         1 <0>         0.0740
     43 H15         9.0800    1.7989   -1.0101 H         1 <0>         0.0828
     44 H16         8.5855    1.0846    0.5604 H         1 <0>         0.0764
     45 H17         8.5938   -0.9091   -0.7005 H         1 <0>         0.0885
     46 H18         8.2910   -0.0473   -2.2395 H         1 <0>         0.0903
     47 H19         5.1249   -4.6529   -1.7316 H         1 <0>         0.4270
     48 H20         3.4669   -3.2981   -0.2835 H         1 <0>         0.1004
     49 H21         3.2187   -2.9310   -2.0150 H         1 <0>         0.1004
@<TRIPOS>BOND
     1    1    6 ar
     2    1    2 ar
     3    1   30 1
     4    2    3 ar
     5    2   31 1
     6    3   21 1
     7    3    4 ar
     8    4    5 ar
     9    4   15 1
    10    5    6 ar
    11    5   32 1
    12    6    7 1
    13    7    8 2
    14    7    9 am
    15    9   14 1
    16    9   10 1
    17   10   11 1
    18   10   33 1
    19   10   34 1
    20   11   12 1
    21   11   35 1
    22   11   36 1
    23   12   13 1
    24   13   14 1
    25   13   37 1
    26   13   38 1
    27   14   39 1
    28   14   40 1
    29   15   20 ar
    30   15   16 ar
    31   16   29 1
    32   16   17 ar
    33   17   18 ar
    34   17   26 1
    35   18   25 1
    36   18   19 ar
    37   19   20 ar
    38   19   23 1
    39   20   21 1
    40   21   22 1
    41   23   24 1
    42   23   41 1
    43   23   42 1
    44   24   25 1
    45   24   43 1
    46   24   44 1
    47   25   45 1
    48   25   46 1
    49   26   27 2
    50   26   28 am
    51   28   29 1
    52   28   47 1
    53   29   48 1
    54   29   49 1
@<TRIPOS>MOLECULE
CHEMBL444846
   28    30     0     0     0
SMALL
USER_CHARGES

@<TRIPOS>ATOM
      1 C1         -0.0168    1.3865    0.0097 C.ar      1 <0>        -0.1051
      2 C2          1.1464    2.1046    0.0024 C.ar      1 <0>        -0.1017
      3 C3          2.3708    1.4343   -0.0124 C.ar      1 <0>        -0.0085
      4 C4          2.3958    0.0227   -0.0192 C.ar      1 <0>        -0.1154
      5 C5          1.1986   -0.6918   -0.0121 C.ar      1 <0>        -0.0793
      6 C6          0.0021   -0.0041    0.0020 C.ar      1 <0>         0.1048
      7 F1         -1.1626   -0.6887    0.0093 F         1 <0>        -0.1222
      8 C7          3.7025   -0.6434   -0.0326 C.2       1 <0>         0.5533
      9 N1          4.8174    0.1070   -0.0353 N.am      1 <0>        -0.6293
     10 C8          4.7974    1.4813   -0.0293 C.2       1 <0>         0.1706
     11 C9          3.6453    2.1655   -0.0223 C.2       1 <0>        -0.2086
     12 C10         3.5992    3.6704   -0.0304 C.3       1 <0>         0.0633
     13 N2          4.8822    4.2359    0.3941 N.4       1 <0>        -0.5068
     14 C11         5.9495    3.6525   -0.4343 C.3       1 <0>         0.0031
     15 C12         6.1311    2.1914   -0.0257 C.3       1 <0>        -0.1234
     16 O1          3.7761   -1.8590   -0.0407 O.2       1 <0>        -0.4876
     17 H1         -0.9634    1.9063    0.0260 H         1 <0>         0.1518
     18 H2          1.1183    3.1842    0.0078 H         1 <0>         0.1442
     19 H3          1.2075   -1.7717   -0.0183 H         1 <0>         0.1592
     20 H4          3.3714    4.0164   -1.0386 H         1 <0>         0.1441
     21 H5          2.8165    4.0084    0.6488 H         1 <0>         0.1444
     22 H6          4.8679    5.2374    0.2722 H         1 <0>         0.4414
     23 H7          5.6696    3.7081   -1.4863 H         1 <0>         0.1418
     24 H8          6.8795    4.1973   -0.2720 H         1 <0>         0.1500
     25 H9          6.5621    2.1458    0.9744 H         1 <0>         0.1223
     26 H10         6.8036    1.7010   -0.7295 H         1 <0>         0.1363
     27 H11         5.6769   -0.3426   -0.0413 H         1 <0>         0.4232
     28 H12         5.0463    4.0127    1.3644 H         1 <0>         0.4338
@<TRIPOS>BOND
     1    1    6 ar
     2    1    2 ar
     3    1   17 1
     4    2    3 ar
     5    2   18 1
     6    3   11 1
     7    3    4 ar
     8    4    5 ar
     9    4    8 1
    10    5    6 ar
    11    5   19 1
    12    6    7 1
    13    8    9 am
    14    8   16 2
    15    9   10 1
    16    9   27 1
    17   10   15 1
    18   10   11 2
    19   11   12 1
    20   12   13 1
    21   12   20 1
    22   12   21 1
    23   13   14 1
    24   13   22 1
    25   13   28 1
    26   14   15 1
    27   14   23 1
    28   14   24 1
    29   15   25 1
    30   15   26 1
@<TRIPOS>MOLECULE
CHEMBL444846__1
   27    29     0     0     0
SMALL
USER_CHARGES

@<TRIPOS>ATOM
      1 C1         -0.0168    1.3866    0.0097 C.ar      1 <0>        -0.1110
      2 C2          1.1464    2.1046    0.0024 C.ar      1 <0>        -0.0992
      3 C3          2.3708    1.4342   -0.0126 C.ar      1 <0>         0.0049
      4 C4          2.3958    0.0227   -0.0199 C.ar      1 <0>        -0.1289
      5 C5          1.1986   -0.6918   -0.0130 C.ar      1 <0>        -0.0809
      6 C6          0.0021   -0.0041    0.0020 C.ar      1 <0>         0.0819
      7 F1         -1.1626   -0.6886    0.0091 F         1 <0>        -0.1333
      8 C7          3.7027   -0.6428   -0.0343 C.2       1 <0>         0.5523
      9 N1          4.8169    0.1081   -0.0369 N.am      1 <0>        -0.6314
     10 C8          4.7975    1.4829   -0.0287 C.2       1 <0>         0.1589
     11 C9          3.6452    2.1661   -0.0214 C.2       1 <0>        -0.1643
     12 C10         3.5947    3.6712   -0.0292 C.3       1 <0>         0.1135
     13 N2          4.8856    4.2381    0.3708 N.3       1 <0>        -0.6840
     14 C11         5.9638    3.6480   -0.4400 C.3       1 <0>         0.0556
     15 C12         6.1333    2.1886   -0.0213 C.3       1 <0>        -0.0856
     16 O1          3.7769   -1.8584   -0.0435 O.2       1 <0>        -0.5209
     17 H1         -0.9634    1.9063    0.0260 H         1 <0>         0.1442
     18 H2          1.1184    3.1842    0.0079 H         1 <0>         0.1447
     19 H3          1.2075   -1.7718   -0.0189 H         1 <0>         0.1517
     20 H4          3.3470    4.0165   -1.0329 H         1 <0>         0.0478
     21 H5          2.8248    4.0077    0.6651 H         1 <0>         0.0913
     22 H6          4.8801    5.2437    0.2882 H         1 <0>         0.3537
     23 H7          5.6996    3.6996   -1.4962 H         1 <0>         0.0443
     24 H8          6.8931    4.1903   -0.2662 H         1 <0>         0.0908
     25 H9          6.5579    2.1470    0.9817 H         1 <0>         0.0999
     26 H10         6.8084    1.6904   -0.7171 H         1 <0>         0.0891
     27 H11         5.6765   -0.3414   -0.0445 H         1 <0>         0.4149
@<TRIPOS>BOND
     1    1    6 ar
     2    1    2 ar
     3    1   17 1
     4    2    3 ar
     5    2   18 1
     6    3   11 1
     7    3    4 ar
     8    4    5 ar
     9    4    8 1
    10    5    6 ar
    11    5   19 1
    12    6    7 1
    13    8    9 am
    14    8   16 2
    15    9   10 1
    16    9   27 1
    17   10   15 1
    18   10   11 2
    19   11   12 1
    20   12   13 1
    21   12   20 1
    22   12   21 1
    23   13   14 1
    24   13   22 1
    25   14   15 1
    26   14   23 1
    27   14   24 1
    28   15   25 1
    29   15   26 1
@<TRIPOS>MOLECULE
CHEMBL595680
   44    46     0     0     0
SMALL
USER_CHARGES

@<TRIPOS>ATOM
      1 C1         -0.0178    1.4608    0.0101 C.3       1 <0>         0.0827
      2 N1          0.0021   -0.0041    0.0020 N.am      1 <0>        -0.6227
      3 C2          0.0241   -0.7433    1.2666 C.3       1 <0>         0.0737
      4 C3          0.0001   -0.6716   -1.1688 C.2       1 <0>         0.5125
      5 O1         -0.0182   -0.0596   -2.2157 O.2       1 <0>        -0.5417
      6 C4          0.0205   -2.1784   -1.1771 C.3       1 <0>        -0.1242
      7 C5          0.0137   -2.6806   -2.6223 C.3       1 <0>        -0.1247
      8 C6          0.0341   -4.1875   -2.6306 C.2       1 <0>         0.5231
      9 O2          0.0523   -4.7995   -1.5837 O.2       1 <0>        -0.5335
     10 N2          0.0321   -4.8550   -3.8014 N.am      1 <0>        -0.6052
     11 C7          0.0164   -4.1434   -5.0834 C.3       1 <0>         0.1057
     12 C8         -1.1915   -4.5481   -5.9082 C.3       1 <0>        -0.0981
     13 C9         -1.6366   -5.9622   -5.6778 C.ar      1 <0>        -0.0743
     14 C10        -2.6442   -6.4637   -6.4999 C.ar      1 <0>        -0.0930
     15 C11        -3.1080   -7.7544   -6.3499 C.ar      1 <0>        -0.1211
     16 C12        -2.5847   -8.5711   -5.3674 C.ar      1 <0>        -0.0566
     17 C13        -1.5854   -8.0786   -4.5335 C.ar      1 <0>        -0.1254
     18 C14        -1.0976   -6.7789   -4.7142 C.ar      1 <0>        -0.0666
     19 C15         0.0517   -6.3226   -3.8422 C.3       1 <0>         0.1694
     20 C16        -0.1040   -6.8871   -2.4331 C.3       1 <0>         0.1244
     21 N3         -0.2580   -8.3418   -2.4863 N.am      1 <0>        -0.7315
     22 C17        -1.0176   -8.9140   -3.4544 C.2       1 <0>         0.5605
     23 O3         -1.2191  -10.1126   -3.4399 O.2       1 <0>        -0.5314
     24 H1          1.0048    1.8381    0.0023 H         1 <0>         0.0561
     25 H2         -0.5450    1.8219   -0.8730 H         1 <0>         0.0775
     26 H3         -0.5280    1.8123    0.9069 H         1 <0>         0.0709
     27 H4         -0.9979   -0.9406    1.5900 H         1 <0>         0.0603
     28 H5          0.5496   -1.6879    1.1262 H         1 <0>         0.0770
     29 H6          0.5371   -0.1514    2.0246 H         1 <0>         0.0747
     30 H7          0.9202   -2.5324   -0.6737 H         1 <0>         0.1036
     31 H8         -0.8595   -2.5566   -0.6569 H         1 <0>         0.1029
     32 H9         -0.8860   -2.3267   -3.1257 H         1 <0>         0.1043
     33 H10         0.8937   -2.3025   -3.1426 H         1 <0>         0.1052
     34 H11        -0.0193   -3.0699   -4.8975 H         1 <0>         0.1011
     35 H12         0.9248   -4.3810   -5.6369 H         1 <0>         0.0790
     36 H13        -2.0178   -3.8796   -5.6663 H         1 <0>         0.0856
     37 H14        -0.9481   -4.4276   -6.9638 H         1 <0>         0.0939
     38 H15        -3.0682   -5.8322   -7.2666 H         1 <0>         0.1301
     39 H16        -3.8827   -8.1273   -7.0035 H         1 <0>         0.1341
     40 H17        -2.9473   -9.5812   -5.2470 H         1 <0>         0.1397
     41 H18         0.9947   -6.6623   -4.2704 H         1 <0>         0.0969
     42 H19         0.7792   -6.6386   -1.8448 H         1 <0>         0.1095
     43 H20        -0.9839   -6.4477   -1.9631 H         1 <0>         0.0862
     44 H21         0.1786   -8.8959   -1.8205 H         1 <0>         0.4096
@<TRIPOS>BOND
     1    1    2 1
     2    1   24 1
     3    1   25 1
     4    1   26 1
     5    2    3 1
     6    2    4 am
     7    3   27 1
     8    3   28 1
     9    3   29 1
    10    4    5 2
    11    4    6 1
    12    6    7 1
    13    6   30 1
    14    6   31 1
    15    7    8 1
    16    7   32 1
    17    7   33 1
    18    8    9 2
    19    8   10 am
    20   10   19 1
    21   10   11 1
    22   11   12 1
    23   11   34 1
    24   11   35 1
    25   12   13 1
    26   12   36 1
    27   12   37 1
    28   13   18 ar
    29   13   14 ar
    30   14   15 ar
    31   14   38 1
    32   15   16 ar
    33   15   39 1
    34   16   17 ar
    35   16   40 1
    36   17   22 1
    37   17   18 ar
    38   18   19 1
    39   19   20 1
    40   19   41 1
    41   20   21 1
    42   20   42 1
    43   20   43 1
    44   21   22 am
    45   21   44 1
    46   22   23 2
@<TRIPOS>MOLECULE
CHEMBL595680__1
   44    46     0     0     0
SMALL
USER_CHARGES

@<TRIPOS>ATOM
      1 C1         -0.0178    1.4608    0.0101 C.3       1 <0>         0.0827
      2 N1          0.0021   -0.0041    0.0020 N.am      1 <0>        -0.6226
      3 C2          0.0241   -0.7433    1.2666 C.3       1 <0>         0.0737
      4 C3          0.0001   -0.6716   -1.1688 C.2       1 <0>         0.5125
      5 O1         -0.0182   -0.0596   -2.2157 O.2       1 <0>        -0.5417
      6 C4          0.0205   -2.1784   -1.1771 C.3       1 <0>        -0.1242
      7 C5          0.0137   -2.6806   -2.6223 C.3       1 <0>        -0.1246
      8 C6          0.0341   -4.1875   -2.6306 C.2       1 <0>         0.5232
      9 O2          0.0523   -4.7995   -1.5837 O.2       1 <0>        -0.5336
     10 N2          0.0321   -4.8550   -3.8014 N.am      1 <0>        -0.6046
     11 C7          0.0164   -4.1434   -5.0834 C.3       1 <0>         0.1056
     12 C8          1.2198   -4.5256   -5.9253 C.3       1 <0>        -0.0983
     13 C9          1.6944   -5.9311   -5.7014 C.ar      1 <0>        -0.0742
     14 C10         2.6994   -6.4138   -6.5377 C.ar      1 <0>        -0.0937
     15 C11         3.1893   -7.6956   -6.3945 C.ar      1 <0>        -0.1208
     16 C12         2.6953   -8.5218   -5.4047 C.ar      1 <0>        -0.0568
     17 C13         1.6989   -8.0479   -4.5568 C.ar      1 <0>        -0.1272
     18 C14         1.1844   -6.7576   -4.7303 C.ar      1 <0>        -0.0683
     19 C15         0.0517   -6.3226   -3.8422 C.3       1 <0>         0.1689
     20 C16         0.2495   -6.8823   -2.4365 C.3       1 <0>         0.1235
     21 N3          0.4420   -8.3323   -2.4929 N.am      1 <0>        -0.7232
     22 C17         1.1621   -8.8937   -3.4698 C.2       1 <0>         0.5601
     23 O3          1.3861  -10.0883   -3.4583 O.2       1 <0>        -0.5366
     24 H1          1.0048    1.8381    0.0023 H         1 <0>         0.0560
     25 H2         -0.5450    1.8219   -0.8730 H         1 <0>         0.0776
     26 H3         -0.5280    1.8123    0.9069 H         1 <0>         0.0710
     27 H4         -0.9979   -0.9406    1.5900 H         1 <0>         0.0605
     28 H5          0.5496   -1.6879    1.1262 H         1 <0>         0.0769
     29 H6          0.5371   -0.1514    2.0246 H         1 <0>         0.0746
     30 H7          0.9202   -2.5324   -0.6737 H         1 <0>         0.1031
     31 H8         -0.8595   -2.5566   -0.6569 H         1 <0>         0.1035
     32 H9         -0.8860   -2.3267   -3.1257 H         1 <0>         0.1054
     33 H10         0.8937   -2.3025   -3.1426 H         1 <0>         0.1043
     34 H11        -0.8952   -4.3980   -5.6240 H         1 <0>         0.0791
     35 H12         0.0347   -3.0694   -4.8979 H         1 <0>         0.1012
     36 H13         0.9593   -4.4098   -6.9773 H         1 <0>         0.0940
     37 H14         2.0368   -3.8417   -5.6950 H         1 <0>         0.0856
     38 H15         3.1008   -5.7746   -7.3102 H         1 <0>         0.1299
     39 H16         3.9615   -8.0540   -7.0590 H         1 <0>         0.1339
     40 H17         3.0779   -9.5252   -5.2900 H         1 <0>         0.1396
     41 H18        -0.8897   -6.6880   -4.2525 H         1 <0>         0.0965
     42 H19         1.1258   -6.4190   -1.9832 H         1 <0>         0.0881
     43 H20        -0.6289   -6.6578   -1.8314 H         1 <0>         0.1103
     44 H21         0.0338   -8.8978   -1.8187 H         1 <0>         0.4091
@<TRIPOS>BOND
     1    1    2 1
     2    1   24 1
     3    1   25 1
     4    1   26 1
     5    2    3 1
     6    2    4 am
     7    3   27 1
     8    3   28 1
     9    3   29 1
    10    4    5 2
    11    4    6 1
    12    6    7 1
    13    6   30 1
    14    6   31 1
    15    7    8 1
    16    7   32 1
    17    7   33 1
    18    8    9 2
    19    8   10 am
    20   10   19 1
    21   10   11 1
    22   11   12 1
    23   11   34 1
    24   11   35 1
    25   12   13 1
    26   12   36 1
    27   12   37 1
    28   13   18 ar
    29   13   14 ar
    30   14   15 ar
    31   14   38 1
    32   15   16 ar
    33   15   39 1
    34   16   17 ar
    35   16   40 1
    36   17   22 1
    37   17   18 ar
    38   18   19 1
    39   19   20 1
    40   19   41 1
    41   20   21 1
    42   20   42 1
    43   20   43 1
    44   21   22 am
    45   21   44 1
    46   22   23 2
@<TRIPOS>MOLECULE
CHEMBL361054
   54    57     0     0     0
SMALL
USER_CHARGES

@<TRIPOS>ATOM
      1 C1         -0.0167    1.3792    0.0096 C.ar      1 <0>        -0.1022
      2 C2          1.1683    2.0931    0.0021 C.ar      1 <0>        -0.1153
      3 C3          2.3774    1.4286   -0.0134 C.ar      1 <0>        -0.1018
      4 C4          2.4032    0.0335   -0.0212 C.ar      1 <0>        -0.0848
      5 C5          1.2045   -0.6806   -0.0131 C.ar      1 <0>        -0.1009
      6 C6          0.0021   -0.0041    0.0020 C.ar      1 <0>        -0.1148
      7 C7          3.6950   -0.6848   -0.0384 C.2       1 <0>        -0.0432
      8 C8          4.4943   -0.5772    1.0009 C.2       1 <0>        -0.1913
      9 C9          5.8233   -1.2710    1.0843 C.3       1 <0>         0.0347
     10 N1          6.2689   -1.6856   -0.2511 N.4       1 <0>        -0.3869
     11 C10         5.1971   -2.4623   -0.8938 C.3       1 <0>        -0.0034
     12 C11         4.0456   -1.5174   -1.2408 C.3       1 <0>        -0.1144
     13 C12         7.4741   -2.5169   -0.1311 C.3       1 <0>        -0.0081
     14 C13         8.6201   -1.6750    0.4337 C.3       1 <0>        -0.1459
     15 C14         9.8754   -2.5408    0.5587 C.3       1 <0>        -0.1390
     16 C15        11.0214   -1.6990    1.1235 C.3       1 <0>         0.1142
     17 N2         12.2233   -2.5279    1.2431 N.am      1 <0>        -0.5397
     18 C16        12.4599   -3.2303    2.4162 C.ar      1 <0>         0.2263
     19 C17        11.5837   -3.1692    3.4880 C.ar      1 <0>        -0.1839
     20 C18        11.8551   -3.8831    4.6390 C.ar      1 <0>        -0.0125
     21 C19        12.9965   -4.6621    4.7353 C.ar      1 <0>        -0.1879
     22 C20        13.8837   -4.7364    3.6775 C.ar      1 <0>         0.2134
     23 C21        13.6197   -4.0199    2.5096 C.ar      1 <0>        -0.2389
     24 C22        14.5293   -4.0620    1.3526 C.2       1 <0>         0.5632
     25 O1         15.5453   -4.7296    1.3821 O.2       1 <0>        -0.4683
     26 N3         14.2061   -3.3404    0.2575 N.am      1 <0>        -0.6594
     27 H1         14.7943   -3.3572   -0.5137 H         1 <0>         0.4384
     28 C23        13.0840   -2.6053    0.2135 C.2       1 <0>         0.7086
     29 O2         12.8379   -1.9789   -0.7990 O.2       1 <0>        -0.5369
     30 F1         14.9963   -5.4967    3.7736 F         1 <0>        -0.1019
     31 H2         -0.9604    1.9041    0.0260 H         1 <0>         0.1300
     32 H3          1.1469    3.1729    0.0082 H         1 <0>         0.1303
     33 H4          3.3018    1.9870   -0.0200 H         1 <0>         0.1238
     34 H5          1.2178   -1.7605   -0.0194 H         1 <0>         0.1243
     35 H6         -0.9265   -0.5556    0.0079 H         1 <0>         0.1305
     36 H7          4.1807    0.0380    1.8312 H         1 <0>         0.1510
     37 H8          6.5585   -0.5912    1.5147 H         1 <0>         0.1403
     38 H9          5.7318   -2.1497    1.7228 H         1 <0>         0.1386
     39 H10         5.5771   -2.9272   -1.8035 H         1 <0>         0.1380
     40 H11         4.8408   -3.2312   -0.2083 H         1 <0>         0.1330
     41 H12         3.1757   -2.0990   -1.5459 H         1 <0>         0.1255
     42 H13         4.3502   -0.8642   -2.0585 H         1 <0>         0.1077
     43 H14         7.2735   -3.3533    0.5384 H         1 <0>         0.1326
     44 H15         7.7527   -2.8970   -1.1140 H         1 <0>         0.1343
     45 H16         8.8208   -0.8386   -0.2358 H         1 <0>         0.0944
     46 H17         8.3416   -1.2949    1.4166 H         1 <0>         0.0923
     47 H18         9.6748   -3.3772    1.2282 H         1 <0>         0.0832
     48 H19        10.1540   -2.9209   -0.4242 H         1 <0>         0.0859
     49 H20        11.2220   -0.8626    0.4539 H         1 <0>         0.1090
     50 H21        10.7428   -1.3189    2.1063 H         1 <0>         0.1016
     51 H22        10.6910   -2.5647    3.4238 H         1 <0>         0.1444
     52 H23        11.1705   -3.8331    5.4728 H         1 <0>         0.1511
     53 H24        13.1947   -5.2144    5.6420 H         1 <0>         0.1545
     54 H25         6.4742   -0.8691   -0.8071 H         1 <0>         0.4265
@<TRIPOS>BOND
     1    1    6 ar
     2    1    2 ar
     3    1   31 1
     4    2    3 ar
     5    2   32 1
     6    3    4 ar
     7    3   33 1
     8    4    5 ar
     9    4    7 1
    10    5    6 ar
    11    5   34 1
    12    6   35 1
    13    7   12 1
    14    7    8 2
    15    8    9 1
    16    8   36 1
    17    9   10 1
    18    9   37 1
    19    9   38 1
    20   10   11 1
    21   10   13 1
    22   10   54 1
    23   11   12 1
    24   11   39 1
    25   11   40 1
    26   12   41 1
    27   12   42 1
    28   13   14 1
    29   13   43 1
    30   13   44 1
    31   14   15 1
    32   14   45 1
    33   14   46 1
    34   15   16 1
    35   15   47 1
    36   15   48 1
    37   16   17 1
    38   16   49 1
    39   16   50 1
    40   17   28 am
    41   17   18 1
    42   18   23 ar
    43   18   19 ar
    44   19   20 ar
    45   19   51 1
    46   20   21 ar
    47   20   52 1
    48   21   22 ar
    49   21   53 1
    50   22   23 ar
    51   22   30 1
    52   23   24 1
    53   24   25 2
    54   24   26 am
    55   26   27 1
    56   26   28 am
    57   28   29 2
@<TRIPOS>MOLECULE
CHEMBL480710
   47    49     0     0     0
SMALL
USER_CHARGES

@<TRIPOS>ATOM
      1 C1         -0.4722   -0.1268    0.2163 C.ar      1 <0>        -0.1621
      2 C2          0.5426    0.8062    0.0767 C.ar      1 <0>        -0.0489
      3 C3          1.8622    0.4023    0.0384 C.ar      1 <0>        -0.2219
      4 C4          2.1806   -0.9439    0.1403 C.ar      1 <0>         0.1825
      5 C5          1.1571   -1.8906    0.2820 C.ar      1 <0>        -0.1749
      6 C6         -0.1740   -1.4681    0.3188 C.ar      1 <0>        -0.0458
      7 C7          1.4834   -3.3253    0.3908 C.2       1 <0>         0.5625
      8 O1          2.6431   -3.6893    0.3576 O.2       1 <0>        -0.5230
      9 N1          0.4960   -4.2325    0.5270 N.am      1 <0>        -0.8538
     10 O2          3.4767   -1.3422    0.1024 O.3       1 <0>        -0.2731
     11 C8          4.4653   -0.3209   -0.0445 C.3       1 <0>         0.0927
     12 C9          5.8357   -0.9475   -0.0662 C.ar      1 <0>        -0.0935
     13 C10         6.5286   -1.1336    1.1171 C.ar      1 <0>        -0.0567
     14 C11         7.7868   -1.7086    1.1059 C.ar      1 <0>        -0.1177
     15 C12         8.3592   -2.0999   -0.0869 C.ar      1 <0>        -0.0484
     16 C13         7.6658   -1.9151   -1.2839 C.ar      1 <0>        -0.1498
     17 C14         6.3942   -1.3395   -1.2650 C.ar      1 <0>        -0.0721
     18 C15         8.2733   -2.3316   -2.5658 C.2       1 <0>         0.5762
     19 O3          8.9369   -3.3485   -2.6218 O.2       1 <0>        -0.5000
     20 N2          8.0913   -1.5839   -3.6722 N.am      1 <0>        -0.6325
     21 C16         7.4071   -0.2835   -3.6022 C.3       1 <0>         0.0717
     22 C17         8.2760    0.7613   -4.3103 C.3       1 <0>        -0.0222
     23 N3          8.5738    0.3058   -5.6741 N.4       1 <0>        -0.5054
     24 C18         9.3856   -0.9168   -5.6269 C.3       1 <0>        -0.0198
     25 C19         8.5767   -2.0421   -4.9831 C.3       1 <0>         0.0859
     26 H1         -1.5013    0.1992    0.2493 H         1 <0>         0.1347
     27 H2          0.2998    1.8555   -0.0030 H         1 <0>         0.1332
     28 H3          2.6476    1.1354   -0.0713 H         1 <0>         0.1343
     29 H4         -0.9683   -2.1918    0.4279 H         1 <0>         0.1354
     30 H5         -0.4291   -3.9422    0.5535 H         1 <0>         0.3997
     31 H6          0.7106   -5.1758    0.5985 H         1 <0>         0.4069
     32 H7          4.2967    0.2165   -0.9777 H         1 <0>         0.0720
     33 H8          4.3968    0.3741    0.7924 H         1 <0>         0.0789
     34 H9          6.0852   -0.8284    2.0534 H         1 <0>         0.1363
     35 H10         8.3223   -1.8510    2.0329 H         1 <0>         0.1412
     36 H11         9.3419   -2.5480   -0.0944 H         1 <0>         0.1377
     37 H12         5.8505   -1.1978   -2.1874 H         1 <0>         0.1302
     38 H13         6.4390   -0.3518   -4.0984 H         1 <0>         0.0995
     39 H14         7.2682    0.0017   -2.5594 H         1 <0>         0.1390
     40 H15         7.7414    1.7102   -4.3526 H         1 <0>         0.1486
     41 H16         9.2074    0.8929   -3.7596 H         1 <0>         0.1370
     42 H17         7.7101    0.1160   -6.1601 H         1 <0>         0.4294
     43 H18         9.6687   -1.2044   -6.6395 H         1 <0>         0.1489
     44 H19        10.2834   -0.7344   -5.0364 H         1 <0>         0.1362
     45 H20         9.2107   -2.9192   -4.8528 H         1 <0>         0.1382
     46 H21         7.7287   -2.2910   -5.6211 H         1 <0>         0.0974
     47 H22         9.0816    1.0265   -6.1647 H         1 <0>         0.4356
@<TRIPOS>BOND
     1    1    6 ar
     2    1    2 ar
     3    1   26 1
     4    2    3 ar
     5    2   27 1
     6    3    4 ar
     7    3   28 1
     8    4    5 ar
     9    4   10 1
    10    5    6 ar
    11    5    7 1
    12    6   29 1
    13    7    8 2
    14    7    9 am
    15    9   30 1
    16    9   31 1
    17   10   11 1
    18   11   12 1
    19   11   32 1
    20   11   33 1
    21   12   17 ar
    22   12   13 ar
    23   13   14 ar
    24   13   34 1
    25   14   15 ar
    26   14   35 1
    27   15   16 ar
    28   15   36 1
    29   16   17 ar
    30   16   18 1
    31   17   37 1
    32   18   19 2
    33   18   20 am
    34   20   25 1
    35   20   21 1
    36   21   22 1
    37   21   38 1
    38   21   39 1
    39   22   23 1
    40   22   40 1
    41   22   41 1
    42   23   24 1
    43   23   42 1
    44   23   47 1
    45   24   25 1
    46   24   43 1
    47   24   44 1
    48   25   45 1
    49   25   46 1
@<TRIPOS>MOLECULE
CHEMBL480710__1
   46    48     0     0     0
SMALL
USER_CHARGES

@<TRIPOS>ATOM
      1 C1         -0.4923   -0.2596    0.2547 C.ar      1 <0>        -0.1671
      2 C2          0.5045    0.6902    0.1001 C.ar      1 <0>        -0.0490
      3 C3          1.8309    0.3099    0.0566 C.ar      1 <0>        -0.2213
      4 C4          2.1742   -1.0294    0.1684 C.ar      1 <0>         0.1875
      5 C5          1.1690   -1.9931    0.3254 C.ar      1 <0>        -0.1777
      6 C6         -0.1693   -1.5943    0.3673 C.ar      1 <0>        -0.0472
      7 C7          1.5219   -3.4206    0.4448 C.2       1 <0>         0.5612
      8 O1          2.6877   -3.7639    0.4071 O.2       1 <0>        -0.5176
      9 N1          0.5520   -4.3442    0.5957 N.am      1 <0>        -0.8561
     10 O2          3.4771   -1.4047    0.1254 O.3       1 <0>        -0.2722
     11 C8          4.4461   -0.3670   -0.0372 C.3       1 <0>         0.0949
     12 C9          5.8274   -0.9691   -0.0625 C.ar      1 <0>        -0.0998
     13 C10         6.5312   -1.1319    1.1178 C.ar      1 <0>        -0.0670
     14 C11         7.7995   -1.6842    1.1034 C.ar      1 <0>        -0.1249
     15 C12         8.3712   -2.0759   -0.0897 C.ar      1 <0>        -0.0534
     16 C13         7.6668   -1.9145   -1.2836 C.ar      1 <0>        -0.1340
     17 C14         6.3850   -1.3618   -1.2614 C.ar      1 <0>        -0.0629
     18 C15         8.2733   -2.3316   -2.5658 C.2       1 <0>         0.5631
     19 O3          8.9361   -3.3490   -2.6220 O.2       1 <0>        -0.5308
     20 N2          8.0913   -1.5839   -3.6722 N.am      1 <0>        -0.6104
     21 C16         8.5718   -2.0461   -4.9832 C.3       1 <0>         0.1144
     22 C17         9.4024   -0.9266   -5.6196 C.3       1 <0>         0.0429
     23 N3          8.6103    0.3102   -5.6492 N.3       1 <0>        -0.6897
     24 C18         8.2835    0.7662   -4.2916 C.3       1 <0>         0.0415
     25 C19         7.4016   -0.2867   -3.6017 C.3       1 <0>         0.1014
     26 H1         -1.5269    0.0481    0.2917 H         1 <0>         0.1319
     27 H2          0.2423    1.7342    0.0126 H         1 <0>         0.1318
     28 H3          2.6022    1.0560   -0.0649 H         1 <0>         0.1361
     29 H4         -0.9496   -2.3311    0.4881 H         1 <0>         0.1330
     30 H5         -0.3781   -4.0704    0.6258 H         1 <0>         0.3981
     31 H6          0.7840   -5.2828    0.6743 H         1 <0>         0.4053
     32 H7          4.2617    0.1587   -0.9740 H         1 <0>         0.0746
     33 H8          4.3705    0.3342    0.7939 H         1 <0>         0.0766
     34 H9          6.0885   -0.8262    2.0543 H         1 <0>         0.1304
     35 H10         8.3435   -1.8086    2.0280 H         1 <0>         0.1351
     36 H11         9.3617   -2.5063   -0.0997 H         1 <0>         0.1341
     37 H12         5.8329   -1.2382   -2.1814 H         1 <0>         0.1323
     38 H13         9.1914   -2.9336   -4.8540 H         1 <0>         0.0977
     39 H14         7.7211   -2.2801   -5.6233 H         1 <0>         0.0775
     40 H15        10.3064   -0.7657   -5.0324 H         1 <0>         0.0374
     41 H16         9.6743   -1.2088   -6.6368 H         1 <0>         0.0903
     42 H17         9.0867    1.0323   -6.1684 H         1 <0>         0.3488
     43 H18         9.2031    0.9036   -3.7228 H         1 <0>         0.0378
     44 H19         7.7440    1.7118   -4.3455 H         1 <0>         0.0896
     45 H20         6.4406   -0.3548   -4.1115 H         1 <0>         0.0795
     46 H21         7.2472   -0.0104   -2.5587 H         1 <0>         0.0964
@<TRIPOS>BOND
     1    1    6 ar
     2    1    2 ar
     3    1   26 1
     4    2    3 ar
     5    2   27 1
     6    3    4 ar
     7    3   28 1
     8    4    5 ar
     9    4   10 1
    10    5    6 ar
    11    5    7 1
    12    6   29 1
    13    7    8 2
    14    7    9 am
    15    9   30 1
    16    9   31 1
    17   10   11 1
    18   11   12 1
    19   11   32 1
    20   11   33 1
    21   12   17 ar
    22   12   13 ar
    23   13   14 ar
    24   13   34 1
    25   14   15 ar
    26   14   35 1
    27   15   16 ar
    28   15   36 1
    29   16   17 ar
    30   16   18 1
    31   17   37 1
    32   18   19 2
    33   18   20 am
    34   20   25 1
    35   20   21 1
    36   21   22 1
    37   21   38 1
    38   21   39 1
    39   22   23 1
    40   22   40 1
    41   22   41 1
    42   23   24 1
    43   23   42 1
    44   24   25 1
    45   24   43 1
    46   24   44 1
    47   25   45 1
    48   25   46 1
@<TRIPOS>MOLECULE
CHEMBL560790
   52    55     0     0     0
SMALL
USER_CHARGES

@<TRIPOS>ATOM
      1 C1          5.3068    3.5317   -0.7931 C.ar      1 <0>        -0.0370
      2 C2          4.0211    3.2538   -0.4294 C.ar      1 <0>        -0.1350
      3 C3          3.6236    1.9380   -0.2011 C.ar      1 <0>         0.1249
      4 C4          4.5566    0.8908   -0.3460 C.ar      1 <0>        -0.1065
      5 C5          3.8295   -0.3442   -0.0385 C.2       1 <0>        -0.1753
      6 C6          2.5691    0.0079    0.2579 C.2       1 <0>         0.0710
      7 N1          2.4292    1.3662    0.1656 N.pl3     1 <0>        -0.5874
      8 H1          1.6078    1.8536    0.3346 H         1 <0>         0.4229
      9 C7          4.3904   -1.7428   -0.0533 C.3       1 <0>        -0.0537
     10 C8          4.3264   -2.3029   -1.4756 C.3       1 <0>         0.1328
     11 N2          4.8716   -3.6626   -1.4900 N.am      1 <0>        -0.7433
     12 C9          4.9171   -4.3583   -2.6435 C.2       1 <0>         0.6972
     13 O1          4.5929   -3.8261   -3.6875 O.2       1 <0>        -0.5578
     14 N3          5.3220   -5.6438   -2.6396 N.am      1 <0>        -0.6397
     15 C10         5.4802   -6.3443   -3.9302 C.3       1 <0>         0.1145
     16 C11         6.7515   -7.2125   -3.9366 C.3       1 <0>        -0.1591
     17 C12         7.8706   -6.4717   -3.2387 C.3       1 <0>        -0.0082
     18 N4          7.9018   -6.8605   -1.8306 N.4       1 <0>        -0.4861
     19 C13         7.0713   -6.0943   -0.9827 C.3       1 <0>        -0.0550
     20 C14         5.5919   -6.2870   -1.3702 C.3       1 <0>         0.0879
     21 C15         5.8654    1.1773   -0.7165 C.ar      1 <0>        -0.0002
     22 C16         6.2400    2.5002   -0.9412 C.ar      1 <0>        -0.1614
     23 C17         7.6340    2.7855   -1.3380 C.2       1 <0>         0.5686
     24 O2          8.0858    3.9092   -1.2324 O.2       1 <0>        -0.5300
     25 N5          8.3992    1.7851   -1.8180 N.am      1 <0>        -0.7305
     26 C18         7.8574    0.4414   -2.0026 C.3       1 <0>         0.1165
     27 C19         6.8876    0.0845   -0.8787 C.3       1 <0>        -0.1045
     28 H2          5.6046    4.5543   -0.9721 H         1 <0>         0.1413
     29 H3          3.3084    4.0576   -0.3177 H         1 <0>         0.1312
     30 H4          1.7812   -0.6792    0.5289 H         1 <0>         0.1740
     31 H5          5.4271   -1.7221    0.2828 H         1 <0>         0.0784
     32 H6          3.8049   -2.3761    0.6133 H         1 <0>         0.0793
     33 H7          3.2897   -2.3236   -1.8117 H         1 <0>         0.0743
     34 H8          4.9119   -1.6697   -2.1422 H         1 <0>         0.0760
     35 H9          5.1999   -4.0622   -0.6694 H         1 <0>         0.3925
     36 H10         4.6117   -6.9804   -4.1008 H         1 <0>         0.0855
     37 H11         5.5460   -5.6079   -4.7311 H         1 <0>         0.1099
     38 H12         6.5547   -8.1490   -3.4146 H         1 <0>         0.0905
     39 H13         7.0420   -7.4240   -4.9657 H         1 <0>         0.1268
     40 H14         8.8218   -6.7243   -3.7072 H         1 <0>         0.1403
     41 H15         7.6999   -5.3979   -3.3161 H         1 <0>         0.1319
     42 H16         7.6221   -7.8275   -1.7610 H         1 <0>         0.4242
     43 H17         7.2195   -6.4106    0.0498 H         1 <0>         0.1505
     44 H18         7.3339   -5.0406   -1.0763 H         1 <0>         0.1306
     45 H19         4.9596   -5.8467   -0.5992 H         1 <0>         0.1192
     46 H20         5.3751   -7.3522   -1.4505 H         1 <0>         0.1072
     47 H21         9.3258    1.9607   -2.0451 H         1 <0>         0.4061
     48 H22         7.3323    0.3949   -2.9566 H         1 <0>         0.0668
     49 H23         8.6769   -0.2773   -2.0104 H         1 <0>         0.0846
     50 H24         7.4416   -0.0340    0.0525 H         1 <0>         0.0875
     51 H25         6.3824   -0.8509   -1.1193 H         1 <0>         0.0954
     52 H26         8.8519   -6.7834   -1.5000 H         1 <0>         0.4308
@<TRIPOS>BOND
     1    1   22 ar
     2    1    2 ar
     3    1   28 1
     4    2    3 ar
     5    2   29 1
     6    3    7 1
     7    3    4 ar
     8    4    5 1
     9    4   21 ar
    10    5    6 2
    11    5    9 1
    12    6    7 1
    13    6   30 1
    14    7    8 1
    15    9   10 1
    16    9   31 1
    17    9   32 1
    18   10   11 1
    19   10   33 1
    20   10   34 1
    21   11   12 am
    22   11   35 1
    23   12   13 2
    24   12   14 am
    25   14   20 1
    26   14   15 1
    27   15   16 1
    28   15   36 1
    29   15   37 1
    30   16   17 1
    31   16   38 1
    32   16   39 1
    33   17   18 1
    34   17   40 1
    35   17   41 1
    36   18   19 1
    37   18   42 1
    38   18   52 1
    39   19   20 1
    40   19   43 1
    41   19   44 1
    42   20   45 1
    43   20   46 1
    44   21   27 1
    45   21   22 ar
    46   22   23 1
    47   23   24 2
    48   23   25 am
    49   25   26 1
    50   25   47 1
    51   26   27 1
    52   26   48 1
    53   26   49 1
    54   27   50 1
    55   27   51 1
@<TRIPOS>MOLECULE
CHEMBL480704
   65    69     0     0     0
SMALL
USER_CHARGES

@<TRIPOS>ATOM
      1 C1         -0.0528    2.0325   -0.4347 C.3       1 <0>        -0.1859
      2 C2         -0.0662    0.5754    0.0318 C.3       1 <0>         0.0689
      3 C3         -1.4905    0.1240    0.2286 C.2       1 <0>         0.5225
      4 O1         -1.8861   -0.1692    1.3369 O.2       1 <0>        -0.5076
      5 N1         -2.3247    0.0462   -0.8271 N.am      1 <0>        -0.6103
      6 C4         -1.8575    0.3925   -2.1768 C.3       1 <0>         0.0834
      7 C5         -2.1235   -0.7970   -3.1077 C.3       1 <0>         0.0816
      8 N2         -3.5165   -1.2301   -2.9299 N.am      1 <0>        -0.6098
      9 C6         -3.9838   -1.5764   -1.5802 C.3       1 <0>         0.0979
     10 C7         -3.7162   -0.3923   -0.6501 C.3       1 <0>         0.1003
     11 C8         -4.3508   -1.3080   -3.9856 C.2       1 <0>         0.5640
     12 O2         -5.5243   -1.5744   -3.8145 O.2       1 <0>        -0.5252
     13 C9         -3.8385   -1.0693   -5.3517 C.ar      1 <0>        -0.1286
     14 C10        -2.6130   -1.6097   -5.7452 C.ar      1 <0>        -0.0914
     15 C11        -2.1409   -1.3836   -7.0214 C.ar      1 <0>        -0.1203
     16 C12        -2.8791   -0.6226   -7.9108 C.ar      1 <0>        -0.0788
     17 C13        -4.0943   -0.0842   -7.5272 C.ar      1 <0>        -0.0781
     18 C14        -4.5806   -0.3075   -6.2554 C.ar      1 <0>        -0.0493
     19 C15        -4.8912    0.7437   -8.5022 C.3       1 <0>        -0.0188
     20 C16        -5.8194   -0.1524   -9.2809 C.2       1 <0>         0.1370
     21 C17        -6.7003    0.4166  -10.3010 C.ar      1 <0>        -0.0597
     22 C18        -6.7124    1.7835  -10.5849 C.ar      1 <0>        -0.0979
     23 C19        -7.5536    2.2672  -11.5478 C.ar      1 <0>        -0.0873
     24 C20        -8.3988    1.4172  -12.2494 C.ar      1 <0>        -0.1107
     25 C21        -8.4089    0.0641  -11.9904 C.ar      1 <0>        -0.0543
     26 C22        -7.5587   -0.4519  -11.0133 C.ar      1 <0>        -0.1255
     27 C23        -7.5213   -1.8838  -10.6913 C.2       1 <0>         0.5284
     28 O3         -8.2421   -2.6709  -11.2785 O.2       1 <0>        -0.5206
     29 N3         -6.6731   -2.3114   -9.7329 N.am      1 <0>        -0.5330
     30 H1         -6.6439   -3.2564   -9.5157 H         1 <0>         0.4369
     31 N4         -5.8334   -1.4314   -9.0499 N.2       1 <0>        -0.2188
     32 O4          0.6437    0.4641    1.2670 O.3       1 <0>        -0.2846
     33 C24         1.9935    0.3250    1.1924 C.ar      1 <0>         0.1274
     34 C25         2.7328    0.0935    2.3433 C.ar      1 <0>        -0.1475
     35 C26         4.1047   -0.0480    2.2648 C.ar      1 <0>        -0.0782
     36 C27         4.7412    0.0415    1.0406 C.ar      1 <0>        -0.1567
     37 C28         4.0067    0.2727   -0.1078 C.ar      1 <0>        -0.0795
     38 C29         2.6339    0.4087   -0.0354 C.ar      1 <0>        -0.2132
     39 H2          0.9774    2.3589   -0.5770 H         1 <0>         0.0802
     40 H3         -0.5943    2.1173   -1.3769 H         1 <0>         0.0840
     41 H4         -0.5319    2.6592    0.3175 H         1 <0>         0.0780
     42 H5          0.4129   -0.0514   -0.7204 H         1 <0>         0.0986
     43 H6         -2.3980    1.2675   -2.5377 H         1 <0>         0.0842
     44 H7         -0.7886    0.6047   -2.1506 H         1 <0>         0.1015
     45 H8         -1.9637   -0.4945   -4.1426 H         1 <0>         0.1118
     46 H9         -1.4505   -1.6165   -2.8555 H         1 <0>         0.0787
     47 H10        -5.0526   -1.7886   -1.6063 H         1 <0>         0.1100
     48 H11        -3.4433   -2.4515   -1.2192 H         1 <0>         0.0763
     49 H12        -3.8746   -0.6982    0.3840 H         1 <0>         0.1090
     50 H13        -4.3921    0.4256   -0.8999 H         1 <0>         0.0779
     51 H14        -2.0356   -2.2032   -5.0519 H         1 <0>         0.1287
     52 H15        -1.1930   -1.8011   -7.3272 H         1 <0>         0.1306
     53 H16        -2.5047   -0.4479   -8.9086 H         1 <0>         0.1268
     54 H17        -5.5314    0.1099   -5.9584 H         1 <0>         0.1290
     55 H18        -5.4748    1.4855   -7.9569 H         1 <0>         0.1077
     56 H19        -4.2125    1.2490   -9.1894 H         1 <0>         0.1089
     57 H20        -6.0608    2.4555  -10.0463 H         1 <0>         0.1416
     58 H21        -7.5613    3.3249  -11.7657 H         1 <0>         0.1367
     59 H22        -9.0554    1.8213  -13.0057 H         1 <0>         0.1375
     60 H23        -9.0692   -0.5909  -12.5393 H         1 <0>         0.1436
     61 H24         2.2362    0.0242    3.2998 H         1 <0>         0.1326
     62 H25         4.6807   -0.2283    3.1604 H         1 <0>         0.1311
     63 H26         5.8139   -0.0691    0.9814 H         1 <0>         0.1251
     64 H27         4.5062    0.3425   -1.0628 H         1 <0>         0.1260
     65 H28         2.0601    0.5849   -0.9333 H         1 <0>         0.1275
@<TRIPOS>BOND
     1    1    2 1
     2    1   39 1
     3    1   40 1
     4    1   41 1
     5    2    3 1
     6    2   32 1
     7    2   42 1
     8    3    4 2
     9    3    5 am
    10    5   10 1
    11    5    6 1
    12    6    7 1
    13    6   43 1
    14    6   44 1
    15    7    8 1
    16    7   45 1
    17    7   46 1
    18    8    9 1
    19    8   11 am
    20    9   10 1
    21    9   47 1
    22    9   48 1
    23   10   49 1
    24   10   50 1
    25   11   12 2
    26   11   13 1
    27   13   18 ar
    28   13   14 ar
    29   14   15 ar
    30   14   51 1
    31   15   16 ar
    32   15   52 1
    33   16   17 ar
    34   16   53 1
    35   17   18 ar
    36   17   19 1
    37   18   54 1
    38   19   20 1
    39   19   55 1
    40   19   56 1
    41   20   31 2
    42   20   21 1
    43   21   26 ar
    44   21   22 ar
    45   22   23 ar
    46   22   57 1
    47   23   24 ar
    48   23   58 1
    49   24   25 ar
    50   24   59 1
    51   25   26 ar
    52   25   60 1
    53   26   27 1
    54   27   28 2
    55   27   29 am
    56   29   30 1
    57   29   31 1
    58   32   33 1
    59   33   38 ar
    60   33   34 ar
    61   34   35 ar
    62   34   61 1
    63   35   36 ar
    64   35   62 1
    65   36   37 ar
    66   36   63 1
    67   37   38 ar
    68   37   64 1
    69   38   65 1
@<TRIPOS>MOLECULE
CHEMBL480704__1
   65    69     0     0     0
SMALL
USER_CHARGES

@<TRIPOS>ATOM
      1 C1          0.4062    0.3265    0.4052 C.3       1 <0>        -0.1830
      2 C2          0.5471   -1.1386    0.8229 C.3       1 <0>         0.0684
      3 C3          1.2191   -1.2147    2.1697 C.2       1 <0>         0.5230
      4 O1          0.5925   -1.5847    3.1400 O.2       1 <0>        -0.5071
      5 N1          2.5163   -0.8715    2.2959 N.am      1 <0>        -0.6107
      6 C4          3.3096   -0.4988    1.1162 C.3       1 <0>         0.0836
      7 C5          3.9195    0.8882    1.3540 C.3       1 <0>         0.0810
      8 N2          4.5659    0.8969    2.6738 N.am      1 <0>        -0.6095
      9 C6          3.7726    0.5242    3.8535 C.3       1 <0>         0.0981
     10 C7          3.1612   -0.8574    3.6164 C.3       1 <0>         0.1004
     11 C8          5.8631    1.2401    2.8000 C.2       1 <0>         0.5640
     12 O2          6.4132    1.1504    3.8802 O.2       1 <0>        -0.5250
     13 C9          6.6171    1.7256    1.6246 C.ar      1 <0>        -0.1289
     14 C10         6.0216    2.6148    0.7282 C.ar      1 <0>        -0.0919
     15 C11         6.7307    3.0644   -0.3662 C.ar      1 <0>        -0.1205
     16 C12         8.0294    2.6355   -0.5768 C.ar      1 <0>        -0.0786
     17 C13         8.6253    1.7544    0.3076 C.ar      1 <0>        -0.0782
     18 C14         7.9291    1.3015    1.4094 C.ar      1 <0>        -0.0489
     19 C15        10.0399    1.2923    0.0700 C.3       1 <0>        -0.0189
     20 C16        10.9975    2.2334    0.7544 C.2       1 <0>         0.1372
     21 C17        12.4393    2.0017    0.6662 C.ar      1 <0>        -0.0598
     22 C18        12.9701    0.9217   -0.0418 C.ar      1 <0>        -0.0979
     23 C19        14.3249    0.7480   -0.0953 C.ar      1 <0>        -0.0873
     24 C20        15.1836    1.6315    0.5460 C.ar      1 <0>        -0.1107
     25 C21        14.6884    2.7058    1.2523 C.ar      1 <0>        -0.0543
     26 C22        13.3099    2.9035    1.3198 C.ar      1 <0>        -0.1255
     27 C23        12.7201    4.0290    2.0551 C.2       1 <0>         0.5284
     28 O3         13.4298    4.8324    2.6337 O.2       1 <0>        -0.5206
     29 N3         11.3770    4.1569    2.0775 N.am      1 <0>        -0.5330
     30 H1         10.9814    4.8985    2.5617 H         1 <0>         0.4369
     31 N4         10.5425    3.2539    1.4184 N.2       1 <0>        -0.2189
     32 O4         -0.7477   -1.7380    0.9021 O.3       1 <0>        -0.2847
     33 C24        -1.2882   -2.1947   -0.2581 C.ar      1 <0>         0.1277
     34 C25        -0.6167   -2.0091   -1.4578 C.ar      1 <0>        -0.2136
     35 C26        -1.1680   -2.4747   -2.6358 C.ar      1 <0>        -0.0793
     36 C27        -2.3882   -3.1248   -2.6199 C.ar      1 <0>        -0.1569
     37 C28        -3.0596   -3.3106   -1.4256 C.ar      1 <0>        -0.0781
     38 C29        -2.5097   -2.8523   -0.2441 C.ar      1 <0>        -0.1478
     39 H2          1.3840    0.8075    0.4318 H         1 <0>         0.0806
     40 H3          0.0029    0.3788   -0.6061 H         1 <0>         0.0805
     41 H4         -0.2686    0.8369    1.0924 H         1 <0>         0.0792
     42 H5          1.1491   -1.6703    0.0860 H         1 <0>         0.0979
     43 H6          4.1059   -1.2277    0.9657 H         1 <0>         0.0834
     44 H7          2.6660   -0.4696    0.2369 H         1 <0>         0.0999
     45 H8          4.6600    1.0993    0.5825 H         1 <0>         0.1125
     46 H9          3.1336    1.6430    1.3266 H         1 <0>         0.0795
     47 H10         4.4162    0.4949    4.7327 H         1 <0>         0.1101
     48 H11         2.9763    1.2531    4.0040 H         1 <0>         0.0765
     49 H12         2.4197   -1.0649    4.3879 H         1 <0>         0.1089
     50 H13         3.9467   -1.6124    3.6479 H         1 <0>         0.0778
     51 H14         5.0078    2.9498    0.8911 H         1 <0>         0.1291
     52 H15         6.2711    3.7524   -1.0604 H         1 <0>         0.1308
     53 H16         8.5800    2.9899   -1.4357 H         1 <0>         0.1269
     54 H17         8.3969    0.6169    2.1014 H         1 <0>         0.1292
     55 H18        10.1667    0.2878    0.4738 H         1 <0>         0.1078
     56 H19        10.2437    1.2818   -1.0007 H         1 <0>         0.1089
     57 H20        12.3136    0.2269   -0.5443 H         1 <0>         0.1416
     58 H21        14.7333   -0.0881   -0.6435 H         1 <0>         0.1367
     59 H22        16.2507    1.4746    0.4907 H         1 <0>         0.1376
     60 H23        15.3618    3.3885    1.7491 H         1 <0>         0.1436
     61 H24         0.3361   -1.5008   -1.4709 H         1 <0>         0.1274
     62 H25        -0.6456   -2.3305   -3.5700 H         1 <0>         0.1260
     63 H26        -2.8177   -3.4877   -3.5420 H         1 <0>         0.1251
     64 H27        -4.0128   -3.8184   -1.4159 H         1 <0>         0.1311
     65 H28        -3.0324   -3.0016    0.6890 H         1 <0>         0.1326
@<TRIPOS>BOND
     1    1    2 1
     2    1   39 1
     3    1   40 1
     4    1   41 1
     5    2    3 1
     6    2   32 1
     7    2   42 1
     8    3    4 2
     9    3    5 am
    10    5   10 1
    11    5    6 1
    12    6    7 1
    13    6   43 1
    14    6   44 1
    15    7    8 1
    16    7   45 1
    17    7   46 1
    18    8    9 1
    19    8   11 am
    20    9   10 1
    21    9   47 1
    22    9   48 1
    23   10   49 1
    24   10   50 1
    25   11   12 2
    26   11   13 1
    27   13   18 ar
    28   13   14 ar
    29   14   15 ar
    30   14   51 1
    31   15   16 ar
    32   15   52 1
    33   16   17 ar
    34   16   53 1
    35   17   18 ar
    36   17   19 1
    37   18   54 1
    38   19   20 1
    39   19   55 1
    40   19   56 1
    41   20   31 2
    42   20   21 1
    43   21   26 ar
    44   21   22 ar
    45   22   23 ar
    46   22   57 1
    47   23   24 ar
    48   23   58 1
    49   24   25 ar
    50   24   59 1
    51   25   26 ar
    52   25   60 1
    53   26   27 1
    54   27   28 2
    55   27   29 am
    56   29   30 1
    57   29   31 1
    58   32   33 1
    59   33   38 ar
    60   33   34 ar
    61   34   35 ar
    62   34   61 1
    63   35   36 ar
    64   35   62 1
    65   36   37 ar
    66   36   63 1
    67   37   38 ar
    68   37   64 1
    69   38   65 1
@<TRIPOS>MOLECULE
CHEMBL107616
   55    58     0     0     0
SMALL
USER_CHARGES

@<TRIPOS>ATOM
      1 C1         -0.0167    1.3790    0.0096 C.ar      1 <0>        -0.1149
      2 C2          1.1687    2.0918    0.0021 C.ar      1 <0>        -0.1167
      3 C3          2.3774    1.4257   -0.0130 C.ar      1 <0>        -0.1093
      4 C4          2.4021    0.0327   -0.0207 C.ar      1 <0>        -0.0518
      5 C5          1.2051   -0.6804   -0.0131 C.ar      1 <0>        -0.1096
      6 C6          0.0021   -0.0041    0.0020 C.ar      1 <0>        -0.1159
      7 C7          3.6988   -0.6891   -0.0375 C.ar      1 <0>        -0.0534
      8 C8          4.8963    0.0265   -0.0398 C.ar      1 <0>        -0.0751
      9 C9          6.1056   -0.6414   -0.0559 C.ar      1 <0>        -0.1249
     10 C10         6.1391   -2.0208   -0.0694 C.ar      1 <0>        -0.0711
     11 C11         4.9459   -2.7509   -0.0668 C.ar      1 <0>        -0.1686
     12 C12         3.7215   -2.0788   -0.0452 C.ar      1 <0>        -0.0492
     13 C13         4.9804   -4.2223   -0.0816 C.2       1 <0>         0.3961
     14 O1          3.9449   -4.8531   -0.0794 O.2       1 <0>        -0.4463
     15 C14         6.3028   -4.9448   -0.0997 C.3       1 <0>         0.0732
     16 N1          6.0690   -6.3910   -0.1120 N.am      1 <0>        -0.7235
     17 C15         7.1137   -7.2424   -0.1290 C.2       1 <0>         0.5257
     18 O2          8.2473   -6.8113   -0.1341 O.2       1 <0>        -0.5327
     19 C16         6.8732   -8.7300   -0.1418 C.3       1 <0>        -0.1630
     20 C17         8.2158   -9.4635   -0.1601 C.3       1 <0>         0.1167
     21 N2          7.9820  -10.9097   -0.1725 N.am      1 <0>        -0.5391
     22 C18         7.8794  -11.5820    1.0354 C.2       1 <0>         0.2144
     23 C19         7.6428  -12.8960    1.0108 C.2       1 <0>        -0.2479
     24 C20         7.5571  -13.5585   -0.2521 C.2       1 <0>         0.5551
     25 O3          7.3783  -14.7625   -0.2905 O.2       1 <0>        -0.5050
     26 N3          7.6714  -12.8669   -1.3966 N.am      1 <0>        -0.6560
     27 H1          7.6087  -13.3216   -2.2511 H         1 <0>         0.4350
     28 C21         7.8692  -11.5360   -1.3486 C.2       1 <0>         0.6981
     29 O4          7.9502  -10.8999   -2.3817 O.2       1 <0>        -0.5313
     30 C22         7.4222  -13.7826    2.2110 C.3       1 <0>        -0.0101
     31 S1          8.0750  -12.9889    3.7064 S.3       1 <0>        -0.2344
     32 C23         7.4607  -11.2847    3.5143 C.3       1 <0>        -0.0832
     33 C24         8.0784  -10.7150    2.2452 C.3       1 <0>        -0.1029
     34 H2         -0.9602    1.9042    0.0260 H         1 <0>         0.1249
     35 H3          1.1483    3.1716    0.0078 H         1 <0>         0.1264
     36 H4          3.3023    1.9833   -0.0192 H         1 <0>         0.1262
     37 H5          1.2187   -1.7603   -0.0194 H         1 <0>         0.1259
     38 H6         -0.9264   -0.5558    0.0079 H         1 <0>         0.1263
     39 H7          4.8779    1.1063   -0.0293 H         1 <0>         0.1333
     40 H8          7.0290   -0.0812   -0.0583 H         1 <0>         0.1361
     41 H9          7.0875   -2.5372   -0.0823 H         1 <0>         0.1363
     42 H10         2.7966   -2.6365   -0.0386 H         1 <0>         0.1382
     43 H11         6.8607   -4.6593   -0.9915 H         1 <0>         0.1097
     44 H12         6.8753   -4.6769    0.7883 H         1 <0>         0.1100
     45 H13         5.1624   -6.7357   -0.1080 H         1 <0>         0.4120
     46 H14         6.3153   -9.0155    0.7500 H         1 <0>         0.1029
     47 H15         6.3007   -8.9979   -1.0298 H         1 <0>         0.1090
     48 H16         8.7737   -9.1780   -1.0519 H         1 <0>         0.1176
     49 H17         8.7883   -9.1956    0.7279 H         1 <0>         0.1116
     50 H18         6.3545  -13.9633    2.3351 H         1 <0>         0.1028
     51 H19         7.9313  -14.7338    2.0556 H         1 <0>         0.1278
     52 H20         6.3742  -11.2906    3.4267 H         1 <0>         0.0957
     53 H21         7.7602  -10.6844    4.3734 H         1 <0>         0.1260
     54 H22         9.1482  -10.5832    2.4072 H         1 <0>         0.1176
     55 H23         7.6356   -9.7382    2.0503 H         1 <0>         0.1053
@<TRIPOS>BOND
     1    1    6 ar
     2    1    2 ar
     3    1   34 1
     4    2    3 ar
     5    2   35 1
     6    3    4 ar
     7    3   36 1
     8    4    5 ar
     9    4    7 1
    10    5    6 ar
    11    5   37 1
    12    6   38 1
    13    7   12 ar
    14    7    8 ar
    15    8    9 ar
    16    8   39 1
    17    9   10 ar
    18    9   40 1
    19   10   11 ar
    20   10   41 1
    21   11   12 ar
    22   11   13 1
    23   12   42 1
    24   13   14 2
    25   13   15 1
    26   15   16 1
    27   15   43 1
    28   15   44 1
    29   16   17 am
    30   16   45 1
    31   17   18 2
    32   17   19 1
    33   19   20 1
    34   19   46 1
    35   19   47 1
    36   20   21 1
    37   20   48 1
    38   20   49 1
    39   21   28 am
    40   21   22 1
    41   22   33 1
    42   22   23 2
    43   23   24 1
    44   23   30 1
    45   24   25 2
    46   24   26 am
    47   26   27 1
    48   26   28 am
    49   28   29 2
    50   30   31 1
    51   30   50 1
    52   30   51 1
    53   31   32 1
    54   32   33 1
    55   32   52 1
    56   32   53 1
    57   33   54 1
    58   33   55 1
@<TRIPOS>MOLECULE
CHEMBL596144
   49    52     0     0     0
SMALL
USER_CHARGES

@<TRIPOS>ATOM
      1 C1         -0.0043    1.3717   -0.3080 C.ar      1 <0>        -0.0938
      2 C2          1.1825    2.0765   -0.3010 C.ar      1 <0>        -0.0976
      3 C3          2.3832    1.4185   -0.0293 C.ar      1 <0>        -0.1248
      4 C4          2.3784    0.0488    0.2344 C.ar      1 <0>        -0.0528
      5 C5          1.1814   -0.6498    0.2250 C.ar      1 <0>         0.1494
      6 C6         -0.0089    0.0145   -0.0467 C.ar      1 <0>        -0.1035
      7 N1          1.1713   -2.0255    0.4888 N.pl3     1 <0>        -0.2867
      8 C7          0.0754   -2.7996    0.5006 C.2       1 <0>         0.0875
      9 C8          0.4727   -4.0915    0.7994 C.ar      1 <0>        -0.2032
     10 C9         -0.1903   -5.3244    0.9538 C.ar      1 <0>        -0.0052
     11 C10         0.5067   -6.4500    1.2581 C.ar      1 <0>        -0.1666
     12 C11         1.8849   -6.4528    1.4314 C.ar      1 <0>        -0.0158
     13 C12         2.6308   -5.2916    1.3016 C.ar      1 <0>        -0.1291
     14 C13         1.9338   -4.0439    0.9733 C.ar      1 <0>         0.1467
     15 N2          2.3037   -2.7976    0.7733 N.2       1 <0>        -0.2672
     16 C14         4.0903   -5.3105    1.4891 C.2       1 <0>         0.5639
     17 O1          4.7320   -4.2837    1.3721 O.2       1 <0>        -0.5291
     18 N3          4.7161   -6.4655    1.7906 N.am      1 <0>        -0.8523
     19 C15         3.6560    2.1709   -0.0216 C.2       1 <0>         0.5641
     20 O2          4.6662    1.6609   -0.4655 O.2       1 <0>        -0.4993
     21 N4          3.6962    3.4222    0.4775 N.am      1 <0>        -0.6245
     22 C16         2.4896    3.9665    1.1326 C.3       1 <0>         0.0847
     23 C17         2.8566    4.7501    2.4059 C.3       1 <0>        -0.1595
     24 C18         3.9591    4.0234    3.1439 C.3       1 <0>        -0.0103
     25 N5          5.2529    4.5611    2.7292 N.4       1 <0>        -0.4869
     26 C19         5.8169    3.9441    1.5905 C.3       1 <0>        -0.0476
     27 C20         4.9230    4.1827    0.3576 C.3       1 <0>         0.0975
     28 H1         -0.9328    1.8833   -0.5140 H         1 <0>         0.1489
     29 H2          1.1821    3.1368   -0.5061 H         1 <0>         0.1405
     30 H3          3.3043   -0.4657    0.4450 H         1 <0>         0.1534
     31 H4         -0.9406   -0.5317   -0.0536 H         1 <0>         0.1438
     32 H5         -0.9364   -2.4729    0.3112 H         1 <0>         0.1942
     33 H6         -1.2619   -5.3753    0.8297 H         1 <0>         0.1347
     34 H7         -0.0320   -7.3793    1.3700 H         1 <0>         0.1365
     35 H8          2.3857   -7.3788    1.6726 H         1 <0>         0.1375
     36 H9          4.2044   -7.2843    1.8839 H         1 <0>         0.4005
     37 H10         5.6781   -6.4780    1.9142 H         1 <0>         0.4074
     38 H11         1.9753    4.6317    0.4390 H         1 <0>         0.0926
     39 H12         1.8248    3.1443    1.3977 H         1 <0>         0.1105
     40 H13         3.1989    5.7481    2.1324 H         1 <0>         0.0933
     41 H14         1.9801    4.8298    3.0489 H         1 <0>         0.1275
     42 H15         3.8333    4.1650    4.2173 H         1 <0>         0.1409
     43 H16         3.9148    2.9599    2.9089 H         1 <0>         0.1302
     44 H17         5.1414    5.5451    2.5356 H         1 <0>         0.4225
     45 H18         6.8068    4.3618    1.4066 H         1 <0>         0.1498
     46 H19         5.9071    2.8724    1.7680 H         1 <0>         0.1344
     47 H20         5.4580    3.8685   -0.5386 H         1 <0>         0.1287
     48 H21         4.6856    5.2440    0.2833 H         1 <0>         0.1033
     49 H22         5.8995    4.4630    3.4975 H         1 <0>         0.4309
@<TRIPOS>BOND
     1    1    6 ar
     2    1    2 ar
     3    1   28 1
     4    2    3 ar
     5    2   29 1
     6    3    4 ar
     7    3   19 1
     8    4    5 ar
     9    4   30 1
    10    5    6 ar
    11    5    7 1
    12    6   31 1
    13    7   15 1
    14    7    8 1
    15    8    9 2
    16    8   32 1
    17    9   14 ar
    18    9   10 ar
    19   10   11 ar
    20   10   33 1
    21   11   12 ar
    22   11   34 1
    23   12   13 ar
    24   12   35 1
    25   13   14 ar
    26   13   16 1
    27   14   15 2
    28   16   17 2
    29   16   18 am
    30   18   36 1
    31   18   37 1
    32   19   20 2
    33   19   21 am
    34   21   27 1
    35   21   22 1
    36   22   23 1
    37   22   38 1
    38   22   39 1
    39   23   24 1
    40   23   40 1
    41   23   41 1
    42   24   25 1
    43   24   42 1
    44   24   43 1
    45   25   26 1
    46   25   44 1
    47   25   49 1
    48   26   27 1
    49   26   45 1
    50   26   46 1
    51   27   47 1
    52   27   48 1
@<TRIPOS>MOLECULE
CHEMBL107601
   57    60     0     0     0
SMALL
USER_CHARGES

@<TRIPOS>ATOM
      1 C1         -0.0167    1.3818    0.0096 C.ar      1 <0>        -0.2914
      2 C2          1.1915    2.0609    0.0018 C.ar      1 <0>         0.1946
      3 N1          2.3197    1.3705   -0.0127 N.ar      1 <0>        -0.5712
      4 C3          2.3029    0.0457   -0.0197 C.ar      1 <0>         0.5650
      5 N2          1.1654   -0.6335   -0.0129 N.ar      1 <0>        -0.5716
      6 C4          0.0021   -0.0041    0.0020 C.ar      1 <0>         0.1945
      7 N3          3.5022   -0.6451   -0.0348 N.pl3     1 <0>        -0.5863
      8 C5          4.7817    0.0778   -0.0370 C.3       1 <0>         0.1146
      9 C6          5.6243   -0.4138    1.1465 C.3       1 <0>         0.0975
     10 N4          5.6410   -1.8833    1.1327 N.am      1 <0>        -0.6085
     11 C7          4.3614   -2.6062    1.1349 C.3       1 <0>         0.0878
     12 C8          3.5188   -2.1146   -0.0429 C.3       1 <0>         0.1127
     13 C9          6.8088   -2.5560    1.1180 C.2       1 <0>         0.5131
     14 O1          7.8585   -1.9485    1.1160 O.2       1 <0>        -0.5333
     15 C10         6.8102   -4.0629    1.1041 C.3       1 <0>         0.0999
     16 N5          8.1919   -4.5498    1.0895 N.am      1 <0>        -0.7176
     17 C11         8.4394   -5.8746    1.0754 C.2       1 <0>         0.5264
     18 O2          7.5184   -6.6636    1.0748 O.2       1 <0>        -0.5340
     19 C12         9.8607   -6.3754    1.0604 C.3       1 <0>        -0.1622
     20 C13         9.8621   -7.9054    1.0462 C.3       1 <0>         0.1168
     21 N6         11.2438   -8.3923    1.0317 N.am      1 <0>        -0.5391
     22 C14        11.8685   -8.5983   -0.1885 C.2       1 <0>         0.2146
     23 C15        13.1357   -9.0197   -0.1881 C.2       1 <0>        -0.2479
     24 C16        13.7735   -9.2882    1.0618 C.2       1 <0>         0.5552
     25 O3         14.9166   -9.7080    1.0776 O.2       1 <0>        -0.5051
     26 N7         13.1254   -9.0820    2.2189 N.am      1 <0>        -0.6561
     27 H1         13.5649   -9.2626    3.0645 H         1 <0>         0.4350
     28 C17        11.8618   -8.6179    2.1960 C.2       1 <0>         0.6982
     29 O4         11.2770   -8.4065    3.2408 O.2       1 <0>        -0.5313
     30 C18        14.0051   -9.2248   -1.4035 C.3       1 <0>        -0.0101
     31 S1         12.9779   -9.3865   -2.8903 S.3       1 <0>        -0.2346
     32 C19        11.7781   -8.0359   -2.6551 C.3       1 <0>        -0.0832
     33 C20        10.9976   -8.3325   -1.3824 C.3       1 <0>        -0.1029
     34 H2         -0.9525    1.9208    0.0259 H         1 <0>         0.1454
     35 H3          1.2116    3.1407    0.0070 H         1 <0>         0.1682
     36 H4         -0.9219   -0.5632    0.0082 H         1 <0>         0.1684
     37 H5          5.3111   -0.1183   -0.9694 H         1 <0>         0.0721
     38 H6          4.5978    1.1474    0.0642 H         1 <0>         0.1133
     39 H7          6.6423   -0.0356    1.0529 H         1 <0>         0.1086
     40 H8          5.1849   -0.0617    2.0797 H         1 <0>         0.0758
     41 H9          4.5453   -3.6758    1.0337 H         1 <0>         0.1022
     42 H10         3.8320   -2.4101    2.0673 H         1 <0>         0.0814
     43 H11         2.5011   -2.4925    0.0544 H         1 <0>         0.1150
     44 H12         3.9562   -2.4704   -0.9758 H         1 <0>         0.0727
     45 H13         6.3033   -4.4350    1.9944 H         1 <0>         0.1030
     46 H14         6.2903   -4.4185    0.2145 H         1 <0>         0.1034
     47 H15         8.9285   -3.9188    1.0899 H         1 <0>         0.4143
     48 H16        10.3676   -6.0034    0.1701 H         1 <0>         0.1031
     49 H17        10.3806   -6.0198    1.9499 H         1 <0>         0.1093
     50 H18         9.3551   -8.2774    1.9365 H         1 <0>         0.1175
     51 H19         9.3422   -8.2610    0.1567 H         1 <0>         0.1116
     52 H20        14.6734   -8.3713   -1.5175 H         1 <0>         0.1028
     53 H21        14.5983  -10.1300   -1.2744 H         1 <0>         0.1277
     54 H22        12.3045   -7.0869   -2.5537 H         1 <0>         0.0957
     55 H23        11.0974   -7.9934   -3.5053 H         1 <0>         0.1259
     56 H24        10.3678   -9.2051   -1.5554 H         1 <0>         0.1175
     57 H25        10.3544   -7.4806   -1.1617 H         1 <0>         0.1054
@<TRIPOS>BOND
     1    1    6 ar
     2    1    2 ar
     3    1   34 1
     4    2    3 ar
     5    2   35 1
     6    3    4 ar
     7    4    5 ar
     8    4    7 1
     9    5    6 ar
    10    6   36 1
    11    7   12 1
    12    7    8 1
    13    8    9 1
    14    8   37 1
    15    8   38 1
    16    9   10 1
    17    9   39 1
    18    9   40 1
    19   10   11 1
    20   10   13 am
    21   11   12 1
    22   11   41 1
    23   11   42 1
    24   12   43 1
    25   12   44 1
    26   13   14 2
    27   13   15 1
    28   15   16 1
    29   15   45 1
    30   15   46 1
    31   16   17 am
    32   16   47 1
    33   17   18 2
    34   17   19 1
    35   19   20 1
    36   19   48 1
    37   19   49 1
    38   20   21 1
    39   20   50 1
    40   20   51 1
    41   21   28 am
    42   21   22 1
    43   22   33 1
    44   22   23 2
    45   23   24 1
    46   23   30 1
    47   24   25 2
    48   24   26 am
    49   26   27 1
    50   26   28 am
    51   28   29 2
    52   30   31 1
    53   30   52 1
    54   30   53 1
    55   31   32 1
    56   32   33 1
    57   32   54 1
    58   32   55 1
    59   33   56 1
    60   33   57 1
@<TRIPOS>MOLECULE
CHEMBL108239
   57    60     0     0     0
SMALL
USER_CHARGES

@<TRIPOS>ATOM
      1 C1         -0.0062    1.3654    0.2186 C.ar      1 <0>        -0.0746
      2 C2          1.2087    2.0326    0.2205 C.ar      1 <0>        -0.1827
      3 C3          2.3633    1.2868   -0.0136 C.ar      1 <0>         0.3427
      4 N1          2.2698   -0.0176   -0.2279 N.ar      1 <0>        -0.3058
      5 N2          1.1412   -0.6289   -0.2282 N.ar      1 <0>        -0.2012
      6 C4          0.0011   -0.0024   -0.0158 C.ar      1 <0>        -0.0128
      7 N3          3.6069    1.9088   -0.0226 N.pl3     1 <0>        -0.6030
      8 C5          4.8416    1.1120   -0.0448 C.3       1 <0>         0.1109
      9 C6          5.6883    1.5536   -1.2450 C.3       1 <0>         0.0967
     10 N4          5.7915    3.0196   -1.2330 N.am      1 <0>        -0.6081
     11 C7          4.5567    3.8164   -1.2107 C.3       1 <0>         0.0871
     12 C8          3.7100    3.3748   -0.0162 C.3       1 <0>         0.1067
     13 C9          6.9968    3.6225   -1.2417 C.2       1 <0>         0.5128
     14 O1          8.0089    2.9544   -1.2597 O.2       1 <0>        -0.5309
     15 C10         7.0870    5.1267   -1.2291 C.3       1 <0>         0.1001
     16 N5          8.4949    5.5316   -1.2421 N.am      1 <0>        -0.7177
     17 C11         8.8201    6.8395   -1.2340 C.2       1 <0>         0.5268
     18 O2          7.9471    7.6813   -1.2161 O.2       1 <0>        -0.5346
     19 C12        10.2683    7.2560   -1.2473 C.3       1 <0>        -0.1624
     20 C13        10.3599    8.7832   -1.2346 C.3       1 <0>         0.1170
     21 N6         11.7678    9.1881   -1.2475 N.am      1 <0>        -0.5392
     22 C14        12.4273    9.3568   -0.0400 C.2       1 <0>         0.2142
     23 C15        13.7168    9.7031   -0.0656 C.2       1 <0>        -0.2475
     24 C16        14.3447    9.9340   -1.3280 C.2       1 <0>         0.5551
     25 O3         15.5099   10.2859   -1.3665 O.2       1 <0>        -0.5048
     26 N7         13.6631    9.7664   -2.4719 N.am      1 <0>        -0.6561
     27 H1         14.0958    9.9211   -3.3262 H         1 <0>         0.4351
     28 C17        12.3750    9.3773   -2.4239 C.2       1 <0>         0.6983
     29 O4         11.7585    9.2010   -3.4569 O.2       1 <0>        -0.5313
     30 C18        14.6204    9.8564    1.1323 C.3       1 <0>        -0.0102
     31 S1         13.6338   10.0778    2.6388 S.3       1 <0>        -0.2344
     32 C19        12.3524    8.8001    2.4284 C.3       1 <0>        -0.0833
     33 C20        11.5659    9.1423    1.1710 C.3       1 <0>        -0.1026
     34 H2         -0.9308    1.8936    0.3988 H         1 <0>         0.1506
     35 H3          1.2593    3.0969    0.3974 H         1 <0>         0.1470
     36 H4         -0.9276   -0.5537   -0.0239 H         1 <0>         0.1712
     37 H5          5.3997    1.2765    0.8769 H         1 <0>         0.0715
     38 H6          4.5932    0.0551   -0.1414 H         1 <0>         0.1124
     39 H7          6.6839    1.1162   -1.1711 H         1 <0>         0.1083
     40 H8          5.2107    1.2281   -2.1692 H         1 <0>         0.0779
     41 H9          4.8051    4.8733   -1.1141 H         1 <0>         0.1031
     42 H10         3.9986    3.6519   -2.1324 H         1 <0>         0.0825
     43 H11         2.7145    3.8119   -0.0939 H         1 <0>         0.0996
     44 H12         4.1857    3.7041    0.9076 H         1 <0>         0.0787
     45 H13         6.5854    5.5282   -2.1097 H         1 <0>         0.1028
     46 H14         6.6064    5.5120   -0.3299 H         1 <0>         0.1028
     47 H15         9.1931    4.8584   -1.2564 H         1 <0>         0.4146
     48 H16        10.7699    6.8546   -0.3668 H         1 <0>         0.1033
     49 H17        10.7489    6.8707   -2.1466 H         1 <0>         0.1095
     50 H18         9.8583    9.1847   -2.1151 H         1 <0>         0.1174
     51 H19         9.8793    9.1686   -0.3353 H         1 <0>         0.1114
     52 H20        15.2395    8.9651    1.2340 H         1 <0>         0.1030
     53 H21        15.2632   10.7253    0.9908 H         1 <0>         0.1278
     54 H22        12.8201    7.8218    2.3175 H         1 <0>         0.0958
     55 H23        11.6872    8.7975    3.2918 H         1 <0>         0.1259
     56 H24        10.9919   10.0504    1.3555 H         1 <0>         0.1174
     57 H25        10.8696    8.3297    0.9637 H         1 <0>         0.1052
@<TRIPOS>BOND
     1    1    6 ar
     2    1    2 ar
     3    1   34 1
     4    2    3 ar
     5    2   35 1
     6    3    4 ar
     7    3    7 1
     8    4    5 ar
     9    5    6 ar
    10    6   36 1
    11    7   12 1
    12    7    8 1
    13    8    9 1
    14    8   37 1
    15    8   38 1
    16    9   10 1
    17    9   39 1
    18    9   40 1
    19   10   11 1
    20   10   13 am
    21   11   12 1
    22   11   41 1
    23   11   42 1
    24   12   43 1
    25   12   44 1
    26   13   14 2
    27   13   15 1
    28   15   16 1
    29   15   45 1
    30   15   46 1
    31   16   17 am
    32   16   47 1
    33   17   18 2
    34   17   19 1
    35   19   20 1
    36   19   48 1
    37   19   49 1
    38   20   21 1
    39   20   50 1
    40   20   51 1
    41   21   28 am
    42   21   22 1
    43   22   33 1
    44   22   23 2
    45   23   24 1
    46   23   30 1
    47   24   25 2
    48   24   26 am
    49   26   27 1
    50   26   28 am
    51   28   29 2
    52   30   31 1
    53   30   52 1
    54   30   53 1
    55   31   32 1
    56   32   33 1
    57   32   54 1
    58   32   55 1
    59   33   56 1
    60   33   57 1
@<TRIPOS>MOLECULE
CHEMBL480614
   51    54     0     0     0
SMALL
USER_CHARGES

@<TRIPOS>ATOM
      1 C1         -0.0167    1.3792    0.0096 C.ar      1 <0>        -0.1027
      2 C2          1.1683    2.0931    0.0021 C.ar      1 <0>        -0.1154
      3 C3          2.3774    1.4286   -0.0134 C.ar      1 <0>        -0.1018
      4 C4          2.4032    0.0335   -0.0212 C.ar      1 <0>        -0.0839
      5 C5          1.2045   -0.6806   -0.0131 C.ar      1 <0>        -0.1011
      6 C6          0.0021   -0.0041    0.0020 C.ar      1 <0>        -0.1151
      7 C7          3.6950   -0.6848   -0.0384 C.2       1 <0>        -0.0458
      8 C8          4.4943   -0.5772    1.0009 C.2       1 <0>        -0.1884
      9 C9          5.8233   -1.2710    1.0843 C.3       1 <0>         0.0334
     10 N1          6.2689   -1.6856   -0.2511 N.4       1 <0>        -0.3853
     11 C10         5.1971   -2.4623   -0.8938 C.3       1 <0>        -0.0032
     12 C11         4.0456   -1.5174   -1.2408 C.3       1 <0>        -0.1138
     13 C12         7.4741   -2.5169   -0.1311 C.3       1 <0>        -0.0123
     14 C13         8.6201   -1.6750    0.4337 C.3       1 <0>        -0.1330
     15 C14         9.8754   -2.5408    0.5587 C.3       1 <0>        -0.0698
     16 C15        11.0042   -1.7116    1.1150 C.2       1 <0>         0.3847
     17 N2         12.2104   -2.2827    1.3011 N.am      1 <0>        -0.6270
     18 H1         12.3461   -3.2169    1.0781 H         1 <0>         0.4215
     19 C16        13.2294   -1.5501    1.7984 C.2       1 <0>         0.5324
     20 O1         14.3282   -2.0502    1.9731 O.2       1 <0>        -0.5188
     21 C17        12.9975   -0.1943    2.1116 C.2       1 <0>        -0.2518
     22 C18        11.7576    0.3243    1.9009 C.2       1 <0>         0.1553
     23 N3         10.7919   -0.4558    1.4002 N.2       1 <0>        -0.5267
     24 C19        11.7325    1.7836    2.3018 C.3       1 <0>        -0.0704
     25 C20        12.9834    1.9798    3.1855 C.3       1 <0>        -0.1200
     26 C21        13.9196    0.8636    2.6731 C.3       1 <0>        -0.0612
     27 H2         -0.9604    1.9041    0.0260 H         1 <0>         0.1297
     28 H3          1.1469    3.1729    0.0082 H         1 <0>         0.1301
     29 H4          3.3018    1.9870   -0.0200 H         1 <0>         0.1241
     30 H5          1.2178   -1.7605   -0.0194 H         1 <0>         0.1241
     31 H6         -0.9265   -0.5556    0.0079 H         1 <0>         0.1302
     32 H7          4.1807    0.0380    1.8312 H         1 <0>         0.1507
     33 H8          6.5585   -0.5912    1.5147 H         1 <0>         0.1432
     34 H9          5.7318   -2.1497    1.7228 H         1 <0>         0.1386
     35 H10         5.5771   -2.9272   -1.8035 H         1 <0>         0.1380
     36 H11         4.8408   -3.2312   -0.2083 H         1 <0>         0.1329
     37 H12         3.1757   -2.0990   -1.5459 H         1 <0>         0.1250
     38 H13         4.3502   -0.8642   -2.0585 H         1 <0>         0.1073
     39 H14         7.2735   -3.3533    0.5384 H         1 <0>         0.1329
     40 H15         7.7527   -2.8970   -1.1140 H         1 <0>         0.1347
     41 H16         8.8208   -0.8386   -0.2358 H         1 <0>         0.1014
     42 H17         8.3416   -1.2949    1.4166 H         1 <0>         0.1013
     43 H18         9.6748   -3.3772    1.2282 H         1 <0>         0.1114
     44 H19        10.1540   -2.9209   -0.4242 H         1 <0>         0.1115
     45 H20        11.7896    2.4198    1.4185 H         1 <0>         0.0970
     46 H21        10.8291    2.0044    2.8703 H         1 <0>         0.0896
     47 H22        13.4247    2.9631    3.0223 H         1 <0>         0.0907
     48 H23        12.7428    1.8329    4.2384 H         1 <0>         0.0798
     49 H24        14.5078    0.4556    3.4951 H         1 <0>         0.0831
     50 H25        14.5751    1.2481    1.8917 H         1 <0>         0.0858
     51 H26         6.4742   -0.8691   -0.8071 H         1 <0>         0.4272
@<TRIPOS>BOND
     1    1    6 ar
     2    1    2 ar
     3    1   27 1
     4    2    3 ar
     5    2   28 1
     6    3    4 ar
     7    3   29 1
     8    4    5 ar
     9    4    7 1
    10    5    6 ar
    11    5   30 1
    12    6   31 1
    13    7   12 1
    14    7    8 2
    15    8    9 1
    16    8   32 1
    17    9   10 1
    18    9   33 1
    19    9   34 1
    20   10   11 1
    21   10   13 1
    22   10   51 1
    23   11   12 1
    24   11   35 1
    25   11   36 1
    26   12   37 1
    27   12   38 1
    28   13   14 1
    29   13   39 1
    30   13   40 1
    31   14   15 1
    32   14   41 1
    33   14   42 1
    34   15   16 1
    35   15   43 1
    36   15   44 1
    37   16   23 2
    38   16   17 1
    39   17   18 1
    40   17   19 am
    41   19   20 2
    42   19   21 1
    43   21   26 1
    44   21   22 2
    45   22   23 1
    46   22   24 1
    47   24   25 1
    48   24   45 1
    49   24   46 1
    50   25   26 1
    51   25   47 1
    52   25   48 1
    53   26   49 1
    54   26   50 1
@<TRIPOS>MOLECULE
CHEMBL608232
   66    70     0     0     0
SMALL
USER_CHARGES

@<TRIPOS>ATOM
      1 C1          0.1543    1.3726    0.6405 C.ar      1 <0>        -0.1030
      2 C2          1.1690    2.0924    0.0427 C.ar      1 <0>        -0.0617
      3 C3          2.2215    1.4242   -0.5859 C.ar      1 <0>        -0.1368
      4 C4          2.2351    0.0283   -0.6024 C.ar      1 <0>        -0.1251
      5 C5          1.2161   -0.6856   -0.0012 C.ar      1 <0>         0.1694
      6 C6          0.1719   -0.0093    0.6217 C.ar      1 <0>        -0.0993
      7 N1          1.2336   -2.0849   -0.0201 N.am      1 <0>        -0.6741
      8 C7          0.0810   -2.7748    0.0896 C.2       1 <0>         0.5139
      9 O1         -0.9792   -2.1860    0.1036 O.2       1 <0>        -0.5136
     10 C8          0.1097   -4.2779    0.1949 C.3       1 <0>        -0.1398
     11 C9         -1.3209   -4.8086    0.3079 C.3       1 <0>        -0.1064
     12 C10        -1.2918   -6.3346    0.4147 C.3       1 <0>        -0.1047
     13 C11        -2.7224   -6.8652    0.5277 C.3       1 <0>        -0.1408
     14 C12        -2.6937   -8.3683    0.6330 C.2       1 <0>         0.5141
     15 O2         -1.6335   -8.9571    0.6190 O.2       1 <0>        -0.5399
     16 N2         -3.8463   -9.0582    0.7427 N.am      1 <0>        -0.7284
     17 C13        -3.8185  -10.5194    0.8450 C.3       1 <0>         0.1131
     18 C14        -5.2490  -11.0501    0.9580 C.3       1 <0>         0.0849
     19 H1         -5.7608  -10.5597    1.7861 H         1 <0>         0.1129
     20 C15        -5.2248  -12.5765    1.1875 C.3       1 <0>         0.0506
     21 H2         -4.2881  -13.0072    0.8335 H         1 <0>         0.0959
     22 C16        -6.4183  -13.0594    0.3190 C.3       1 <0>         0.0316
     23 H3         -6.2637  -14.0811   -0.0279 H         1 <0>         0.0966
     24 C17        -6.3513  -12.0539   -0.8580 C.3       1 <0>         0.3227
     25 O3         -5.9560  -10.8053   -0.2635 O.3       1 <0>        -0.3582
     26 N3         -7.6668  -11.9214   -1.4890 N.pl3     1 <0>        -0.4620
     27 C18        -8.5986  -10.9639   -1.2182 C.2       1 <0>         0.2844
     28 N4         -9.6510  -11.1447   -1.9621 N.2       1 <0>        -0.4674
     29 C19        -9.4622  -12.2265   -2.7553 C.ar      1 <0>        -0.1040
     30 C20        -8.1845  -12.7347   -2.4652 C.ar      1 <0>         0.3062
     31 N5         -7.7514  -13.8062   -3.1212 N.ar      1 <0>        -0.5638
     32 C21        -8.5045  -14.3846   -4.0329 C.ar      1 <0>         0.3641
     33 N6         -9.7095  -13.9417   -4.3419 N.ar      1 <0>        -0.5921
     34 C22       -10.2305  -12.8816   -3.7324 C.ar      1 <0>         0.5086
     35 N7        -11.4939  -12.4243   -4.0638 N.pl3     1 <0>        -0.8170
     36 O4         -7.6528  -12.9412    1.0289 O.3       1 <0>        -0.5324
     37 O5         -5.4355  -12.8869    2.5664 O.3       1 <0>        -0.5407
     38 C23         3.4829   -0.3781   -1.3454 C.3       1 <0>         0.1467
     39 N8          4.1527    0.8679   -1.7353 N.am      1 <0>        -0.7232
     40 C24         3.4221    1.9069   -1.2954 C.2       1 <0>         0.5623
     41 O6          3.7090    3.0766   -1.4590 O.2       1 <0>        -0.5212
     42 H4         -0.6561    1.8923    1.1299 H         1 <0>         0.1392
     43 H5          1.1486    3.1720    0.0609 H         1 <0>         0.1355
     44 H6         -0.6258   -0.5651    1.0921 H         1 <0>         0.1561
     45 H7          2.0753   -2.5582   -0.1121 H         1 <0>         0.4132
     46 H8          0.5829   -4.6954   -0.6939 H         1 <0>         0.0999
     47 H9          0.6763   -4.5695    1.0792 H         1 <0>         0.1013
     48 H10        -1.7941   -4.3911    1.1966 H         1 <0>         0.0735
     49 H11        -1.8875   -4.5170   -0.5765 H         1 <0>         0.0734
     50 H12        -0.8186   -6.7521   -0.4740 H         1 <0>         0.0719
     51 H13        -0.7252   -6.6261    1.2991 H         1 <0>         0.0722
     52 H14        -3.1956   -6.4477    1.4165 H         1 <0>         0.0965
     53 H15        -3.2890   -6.5737   -0.3566 H         1 <0>         0.0966
     54 H16        -4.6943   -8.5873    0.7539 H         1 <0>         0.4058
     55 H17        -3.3452  -10.9369   -0.0437 H         1 <0>         0.0759
     56 H18        -3.2519  -10.8109    1.7293 H         1 <0>         0.0881
     57 H19        -5.6107  -12.3767   -1.5896 H         1 <0>         0.1277
     58 H20        -8.4809  -10.1723   -0.4930 H         1 <0>         0.2196
     59 H21        -8.1224  -15.2537   -4.5476 H         1 <0>         0.2050
     60 H22       -11.8587  -11.6428   -3.6199 H         1 <0>         0.4194
     61 H23       -12.0146  -12.8851   -4.7401 H         1 <0>         0.4109
     62 H24        -7.6958  -13.4740    1.8348 H         1 <0>         0.3882
     63 H25        -5.4291  -13.8339    2.7618 H         1 <0>         0.3902
     64 H26         4.1319   -0.9646   -0.6950 H         1 <0>         0.0947
     65 H27         3.2199   -0.9553   -2.2318 H         1 <0>         0.0955
     66 H28         4.9853    0.9313   -2.2290 H         1 <0>         0.4271
@<TRIPOS>BOND
     1    1    6 ar
     2    1    2 ar
     3    1   42 1
     4    2    3 ar
     5    2   43 1
     6    3   40 1
     7    3    4 ar
     8    4    5 ar
     9    4   38 1
    10    5    6 ar
    11    5    7 1
    12    6   44 1
    13    7    8 am
    14    7   45 1
    15    8    9 2
    16    8   10 1
    17   10   11 1
    18   10   46 1
    19   10   47 1
    20   11   12 1
    21   11   48 1
    22   11   49 1
    23   12   13 1
    24   12   50 1
    25   12   51 1
    26   13   14 1
    27   13   52 1
    28   13   53 1
    29   14   15 2
    30   14   16 am
    31   16   17 1
    32   16   54 1
    33   17   18 1
    34   17   55 1
    35   17   56 1
    36   18   19 1
    37   18   25 1
    38   18   20 1
    39   20   21 1
    40   20   22 1
    41   20   37 1
    42   22   23 1
    43   22   24 1
    44   22   36 1
    45   24   25 1
    46   24   26 1
    47   24   57 1
    48   26   30 1
    49   26   27 1
    50   27   28 2
    51   27   58 1
    52   28   29 1
    53   29   34 ar
    54   29   30 ar
    55   30   31 ar
    56   31   32 ar
    57   32   33 ar
    58   32   59 1
    59   33   34 ar
    60   34   35 1
    61   35   60 1
    62   35   61 1
    63   36   62 1
    64   37   63 1
    65   38   39 1
    66   38   64 1
    67   38   65 1
    68   39   40 am
    69   39   66 1
    70   40   41 2
@<TRIPOS>MOLECULE
CHEMBL608232__1
   66    70     0     0     0
SMALL
USER_CHARGES

@<TRIPOS>ATOM
      1 C1          0.1543    1.3726    0.6405 C.ar      1 <0>        -0.1030
      2 C2          1.1690    2.0924    0.0427 C.ar      1 <0>        -0.0617
      3 C3          2.2215    1.4242   -0.5859 C.ar      1 <0>        -0.1367
      4 C4          2.2351    0.0283   -0.6024 C.ar      1 <0>        -0.1250
      5 C5          1.2161   -0.6856   -0.0012 C.ar      1 <0>         0.1693
      6 C6          0.1719   -0.0093    0.6217 C.ar      1 <0>        -0.0993
      7 N1          1.2336   -2.0849   -0.0201 N.am      1 <0>        -0.6740
      8 C7          0.0810   -2.7748    0.0896 C.2       1 <0>         0.5139
      9 O1         -0.9792   -2.1860    0.1036 O.2       1 <0>        -0.5136
     10 C8          0.1097   -4.2779    0.1949 C.3       1 <0>        -0.1397
     11 C9         -1.3209   -4.8086    0.3079 C.3       1 <0>        -0.1066
     12 C10        -1.2918   -6.3346    0.4147 C.3       1 <0>        -0.1047
     13 C11        -2.7224   -6.8652    0.5277 C.3       1 <0>        -0.1409
     14 C12        -2.6937   -8.3683    0.6330 C.2       1 <0>         0.5151
     15 O2         -1.6335   -8.9571    0.6190 O.2       1 <0>        -0.5388
     16 N2         -3.8463   -9.0582    0.7427 N.am      1 <0>        -0.7302
     17 C13        -3.8185  -10.5194    0.8450 C.3       1 <0>         0.1248
     18 C14        -5.2490  -11.0501    0.9580 C.3       1 <0>         0.0784
     19 H1         -5.7616  -10.5602    1.7859 H         1 <0>         0.1062
     20 C15        -5.2262  -12.5742    1.1841 C.3       1 <0>         0.0481
     21 H2         -4.2022  -12.9474    1.1652 H         1 <0>         0.0921
     22 C16        -6.0336  -13.1465   -0.0063 C.3       1 <0>         0.0361
     23 H3         -5.3686  -13.4784   -0.8036 H         1 <0>         0.0877
     24 C17        -6.8653  -11.9180   -0.4551 C.3       1 <0>         0.3232
     25 O3         -5.9586  -10.8075   -0.2683 O.3       1 <0>        -0.3561
     26 N3         -7.2480  -12.0409   -1.8639 N.pl3     1 <0>        -0.4714
     27 C18        -6.5811  -11.5144   -2.9298 C.2       1 <0>         0.2617
     28 N4         -7.1989  -11.8170   -4.0345 N.2       1 <0>        -0.4598
     29 C19        -8.2984  -12.5549   -3.7486 C.ar      1 <0>        -0.1109
     30 C20        -8.3402  -12.7121   -2.3528 C.ar      1 <0>         0.3169
     31 N5         -9.3323  -13.4108   -1.8109 N.ar      1 <0>        -0.5473
     32 C21       -10.2633  -13.9522   -2.5680 C.ar      1 <0>         0.3651
     33 N6        -10.2643  -13.8346   -3.8832 N.ar      1 <0>        -0.5913
     34 C22        -9.3175  -13.1469   -4.5136 C.ar      1 <0>         0.5088
     35 N7         -9.3265  -13.0302   -5.8926 N.pl3     1 <0>        -0.8173
     36 O4         -6.8854  -14.2116    0.4204 O.3       1 <0>        -0.5248
     37 O5         -5.8551  -12.9054    2.4238 O.3       1 <0>        -0.5391
     38 C23         3.4829   -0.3781   -1.3454 C.3       1 <0>         0.1468
     39 N8          4.1527    0.8679   -1.7353 N.am      1 <0>        -0.7232
     40 C24         3.4221    1.9069   -1.2954 C.2       1 <0>         0.5623
     41 O6          3.7090    3.0766   -1.4590 O.2       1 <0>        -0.5212
     42 H4         -0.6561    1.8923    1.1299 H         1 <0>         0.1392
     43 H5          1.1486    3.1720    0.0609 H         1 <0>         0.1355
     44 H6         -0.6258   -0.5651    1.0921 H         1 <0>         0.1561
     45 H7          2.0753   -2.5582   -0.1121 H         1 <0>         0.4132
     46 H8          0.5829   -4.6954   -0.6939 H         1 <0>         0.1000
     47 H9          0.6763   -4.5695    1.0792 H         1 <0>         0.1013
     48 H10        -1.7941   -4.3911    1.1966 H         1 <0>         0.0734
     49 H11        -1.8875   -4.5170   -0.5765 H         1 <0>         0.0736
     50 H12        -0.8186   -6.7521   -0.4740 H         1 <0>         0.0723
     51 H13        -0.7252   -6.6261    1.2991 H         1 <0>         0.0722
     52 H14        -3.1956   -6.4477    1.4165 H         1 <0>         0.0966
     53 H15        -3.2890   -6.5737   -0.3566 H         1 <0>         0.0972
     54 H16        -4.6943   -8.5873    0.7539 H         1 <0>         0.4065
     55 H17        -3.3452  -10.9369   -0.0437 H         1 <0>         0.0802
     56 H18        -3.2519  -10.8109    1.7293 H         1 <0>         0.0906
     57 H19        -7.7473  -11.8009    0.1745 H         1 <0>         0.1245
     58 H20        -5.6740  -10.9316   -2.8667 H         1 <0>         0.2226
     59 H21       -11.0557  -14.5138   -2.0958 H         1 <0>         0.2057
     60 H22        -8.6237  -12.5351   -6.3419 H         1 <0>         0.4190
     61 H23       -10.0355  -13.4434   -6.4097 H         1 <0>         0.4112
     62 H24        -6.4125  -14.9680    0.7936 H         1 <0>         0.3835
     63 H25        -5.8689  -13.8528    2.6170 H         1 <0>         0.3886
     64 H26         4.1319   -0.9646   -0.6950 H         1 <0>         0.0947
     65 H27         3.2199   -0.9553   -2.2318 H         1 <0>         0.0955
     66 H28         4.9853    0.9313   -2.2290 H         1 <0>         0.4271
@<TRIPOS>BOND
     1    1    6 ar
     2    1    2 ar
     3    1   42 1
     4    2    3 ar
     5    2   43 1
     6    3   40 1
     7    3    4 ar
     8    4    5 ar
     9    4   38 1
    10    5    6 ar
    11    5    7 1
    12    6   44 1
    13    7    8 am
    14    7   45 1
    15    8    9 2
    16    8   10 1
    17   10   11 1
    18   10   46 1
    19   10   47 1
    20   11   12 1
    21   11   48 1
    22   11   49 1
    23   12   13 1
    24   12   50 1
    25   12   51 1
    26   13   14 1
    27   13   52 1
    28   13   53 1
    29   14   15 2
    30   14   16 am
    31   16   17 1
    32   16   54 1
    33   17   18 1
    34   17   55 1
    35   17   56 1
    36   18   19 1
    37   18   25 1
    38   18   20 1
    39   20   21 1
    40   20   22 1
    41   20   37 1
    42   22   23 1
    43   22   24 1
    44   22   36 1
    45   24   25 1
    46   24   26 1
    47   24   57 1
    48   26   30 1
    49   26   27 1
    50   27   28 2
    51   27   58 1
    52   28   29 1
    53   29   34 ar
    54   29   30 ar
    55   30   31 ar
    56   31   32 ar
    57   32   33 ar
    58   32   59 1
    59   33   34 ar
    60   34   35 1
    61   35   60 1
    62   35   61 1
    63   36   62 1
    64   37   63 1
    65   38   39 1
    66   38   64 1
    67   38   65 1
    68   39   40 am
    69   39   66 1
    70   40   41 2
@<TRIPOS>MOLECULE
CHEMBL1088788
   45    48     0     0     0
SMALL
USER_CHARGES

@<TRIPOS>ATOM
      1 C1         -0.0169    1.3914    0.0097 C.ar      1 <0>        -0.0561
      2 C2          1.1702    2.0944    0.0021 C.ar      1 <0>        -0.0821
      3 C3          2.3776    1.4189   -0.0135 C.ar      1 <0>        -0.1330
      4 C4          2.4033    0.0356   -0.0216 C.ar      1 <0>        -0.1181
      5 C5          1.2234   -0.6793   -0.0137 C.ar      1 <0>        -0.0915
      6 C6          0.0021   -0.0041    0.0020 C.ar      1 <0>         0.0074
      7 C7         -1.2664   -0.7639    0.0100 C.2       1 <0>         0.3045
      8 N1         -1.3672   -2.1279    0.0092 N.pl3     1 <0>        -0.5877
      9 H1         -0.6320   -2.7606    0.0032 H         1 <0>         0.4276
     10 C8         -2.7148   -2.4344    0.0188 C.ar      1 <0>         0.0767
     11 C9         -3.4290   -3.6233    0.0227 C.ar      1 <0>        -0.1226
     12 C10        -4.8122   -3.6039    0.0329 C.ar      1 <0>         0.1246
     13 C11        -5.5006   -2.4023    0.0394 C.ar      1 <0>        -0.1172
     14 C12        -4.8074   -1.1946    0.0357 C.ar      1 <0>        -0.0502
     15 C13        -3.3952   -1.2041    0.0253 C.ar      1 <0>         0.0907
     16 N2         -2.4657   -0.2318    0.0248 N.2       1 <0>        -0.4323
     17 C14        -5.5415    0.0831    0.0422 C.2       1 <0>         0.5604
     18 O1         -4.9312    1.1351    0.0389 O.2       1 <0>        -0.5076
     19 N3         -6.8892    0.0859    0.0517 N.am      1 <0>        -0.8490
     20 F1         -5.4978   -4.7680    0.0362 F         1 <0>        -0.1218
     21 C15         3.6704    2.1933   -0.0222 C.3       1 <0>         0.0824
     22 C16         4.2201    2.2511   -1.4490 C.3       1 <0>        -0.1365
     23 C17         5.5332    3.0390   -1.4529 C.3       1 <0>        -0.1395
     24 C18         6.5148    2.3808   -0.4790 C.3       1 <0>        -0.1488
     25 C19         5.8801    2.3183    0.9120 C.3       1 <0>        -0.0071
     26 N4          4.6432    1.5301    0.8543 N.4       1 <0>        -0.5047
     27 H2         -0.9586    1.9198    0.0260 H         1 <0>         0.1571
     28 H3          1.1570    3.1743    0.0081 H         1 <0>         0.1441
     29 H4          3.3491   -0.4856   -0.0345 H         1 <0>         0.1266
     30 H5          1.2448   -1.7590   -0.0205 H         1 <0>         0.1333
     31 H6         -2.9037   -4.5670    0.0173 H         1 <0>         0.1474
     32 H7         -6.5805   -2.4019    0.0471 H         1 <0>         0.1539
     33 H8         -7.3760   -0.7531    0.0543 H         1 <0>         0.4013
     34 H9         -7.3724    0.9270    0.0560 H         1 <0>         0.4106
     35 H10         3.4891    3.2062    0.3377 H         1 <0>         0.1477
     36 H11         4.4019    1.2389   -1.8103 H         1 <0>         0.0895
     37 H12         3.4971    2.7454   -2.0979 H         1 <0>         0.1142
     38 H13         5.9578    3.0349   -2.4568 H         1 <0>         0.0968
     39 H14         5.3431    4.0658   -1.1405 H         1 <0>         0.0842
     40 H15         6.7443    1.3713   -0.8201 H         1 <0>         0.0882
     41 H16         7.4321    2.9680   -0.4344 H         1 <0>         0.1140
     42 H17         6.5764    1.8504    1.6079 H         1 <0>         0.1352
     43 H18         5.6513    3.3283    1.2522 H         1 <0>         0.1325
     44 H19         4.2557    1.4459    1.7822 H         1 <0>         0.4317
     45 H20         4.8480    0.6107    0.4928 H         1 <0>         0.4231
@<TRIPOS>BOND
     1    1    6 ar
     2    1    2 ar
     3    1   27 1
     4    2    3 ar
     5    2   28 1
     6    3    4 ar
     7    3   21 1
     8    4    5 ar
     9    4   29 1
    10    5    6 ar
    11    5   30 1
    12    6    7 1
    13    7   16 2
    14    7    8 1
    15    8    9 1
    16    8   10 1
    17   10   15 ar
    18   10   11 ar
    19   11   12 ar
    20   11   31 1
    21   12   13 ar
    22   12   20 1
    23   13   14 ar
    24   13   32 1
    25   14   15 ar
    26   14   17 1
    27   15   16 1
    28   17   18 2
    29   17   19 am
    30   19   33 1
    31   19   34 1
    32   21   26 1
    33   21   22 1
    34   21   35 1
    35   22   23 1
    36   22   36 1
    37   22   37 1
    38   23   24 1
    39   23   38 1
    40   23   39 1
    41   24   25 1
    42   24   40 1
    43   24   41 1
    44   25   26 1
    45   25   42 1
    46   25   43 1
    47   26   44 1
    48   26   45 1
@<TRIPOS>MOLECULE
CHEMBL1088788__1
   45    48     0     0     0
SMALL
USER_CHARGES

@<TRIPOS>ATOM
      1 C1         -0.0169    1.3914    0.0097 C.ar      1 <0>        -0.0561
      2 C2          1.1702    2.0944    0.0021 C.ar      1 <0>        -0.0822
      3 C3          2.3776    1.4189   -0.0135 C.ar      1 <0>        -0.1329
      4 C4          2.4033    0.0356   -0.0216 C.ar      1 <0>        -0.1181
      5 C5          1.2234   -0.6793   -0.0137 C.ar      1 <0>        -0.0915
      6 C6          0.0021   -0.0041    0.0020 C.ar      1 <0>         0.0074
      7 C7         -1.2664   -0.7639    0.0100 C.2       1 <0>         0.3045
      8 N1         -1.3672   -2.1279    0.0092 N.pl3     1 <0>        -0.5877
      9 H1         -0.6320   -2.7606    0.0032 H         1 <0>         0.4276
     10 C8         -2.7148   -2.4344    0.0188 C.ar      1 <0>         0.0767
     11 C9         -3.4290   -3.6233    0.0227 C.ar      1 <0>        -0.1226
     12 C10        -4.8122   -3.6039    0.0329 C.ar      1 <0>         0.1246
     13 C11        -5.5006   -2.4023    0.0394 C.ar      1 <0>        -0.1172
     14 C12        -4.8074   -1.1946    0.0357 C.ar      1 <0>        -0.0502
     15 C13        -3.3952   -1.2041    0.0253 C.ar      1 <0>         0.0907
     16 N2         -2.4657   -0.2318    0.0248 N.2       1 <0>        -0.4323
     17 C14        -5.5415    0.0831    0.0422 C.2       1 <0>         0.5604
     18 O1         -4.9312    1.1351    0.0389 O.2       1 <0>        -0.5076
     19 N3         -6.8892    0.0859    0.0517 N.am      1 <0>        -0.8490
     20 F1         -5.4978   -4.7680    0.0362 F         1 <0>        -0.1218
     21 C15         3.6704    2.1933   -0.0222 C.3       1 <0>         0.0824
     22 C16         4.2483    2.2358    1.3941 C.3       1 <0>        -0.1364
     23 C17         5.5614    3.0238    1.3803 C.3       1 <0>        -0.1395
     24 C18         6.5234    2.3762    0.3800 C.3       1 <0>        -0.1488
     25 C19         5.8611    2.3286   -0.9986 C.3       1 <0>        -0.0071
     26 N4          4.6255    1.5397   -0.9249 N.4       1 <0>        -0.5047
     27 H2         -0.9586    1.9198    0.0260 H         1 <0>         0.1571
     28 H3          1.1570    3.1743    0.0081 H         1 <0>         0.1441
     29 H4          3.3491   -0.4856   -0.0345 H         1 <0>         0.1266
     30 H5          1.2448   -1.7590   -0.0205 H         1 <0>         0.1333
     31 H6         -2.9037   -4.5670    0.0173 H         1 <0>         0.1474
     32 H7         -6.5805   -2.4019    0.0471 H         1 <0>         0.1539
     33 H8         -7.3760   -0.7531    0.0543 H         1 <0>         0.4013
     34 H9         -7.3724    0.9270    0.0560 H         1 <0>         0.4106
     35 H10         3.4821    3.2099   -0.3674 H         1 <0>         0.1477
     36 H11         3.5384    2.7231    2.0624 H         1 <0>         0.1142
     37 H12         4.4371    1.2198    1.7407 H         1 <0>         0.0895
     38 H13         5.3652    4.0539    1.0827 H         1 <0>         0.0842
     39 H14         6.0058    3.0089    2.3754 H         1 <0>         0.0968
     40 H15         7.4396    2.9639    0.3236 H         1 <0>         0.1140
     41 H16         6.7594    1.3632    0.7057 H         1 <0>         0.0882
     42 H17         5.6257    3.3421   -1.3234 H         1 <0>         0.1325
     43 H18         6.5435    1.8683   -1.7132 H         1 <0>         0.1352
     44 H19         4.8374    0.6164   -0.5774 H         1 <0>         0.4232
     45 H20         4.2197    1.4654   -1.8457 H         1 <0>         0.4316
@<TRIPOS>BOND
     1    1    6 ar
     2    1    2 ar
     3    1   27 1
     4    2    3 ar
     5    2   28 1
     6    3    4 ar
     7    3   21 1
     8    4    5 ar
     9    4   29 1
    10    5    6 ar
    11    5   30 1
    12    6    7 1
    13    7   16 2
    14    7    8 1
    15    8    9 1
    16    8   10 1
    17   10   15 ar
    18   10   11 ar
    19   11   12 ar
    20   11   31 1
    21   12   13 ar
    22   12   20 1
    23   13   14 ar
    24   13   32 1
    25   14   15 ar
    26   14   17 1
    27   15   16 1
    28   17   18 2
    29   17   19 am
    30   19   33 1
    31   19   34 1
    32   21   26 1
    33   21   22 1
    34   21   35 1
    35   22   23 1
    36   22   36 1
    37   22   37 1
    38   23   24 1
    39   23   38 1
    40   23   39 1
    41   24   25 1
    42   24   40 1
    43   24   41 1
    44   25   26 1
    45   25   42 1
    46   25   43 1
    47   26   44 1
    48   26   45 1
@<TRIPOS>MOLECULE
CHEMBL194684
   45    47     0     0     0
SMALL
USER_CHARGES

@<TRIPOS>ATOM
      1 C1         -0.0165    1.3627    0.0095 C.ar      1 <0>        -0.0884
      2 C2          1.1654    2.0924    0.0022 C.ar      1 <0>        -0.1109
      3 C3          2.3861    1.4540   -0.0134 C.ar      1 <0>        -0.0553
      4 C4          2.4294    0.0605   -0.0213 C.ar      1 <0>        -0.1267
      5 C5          1.2244   -0.6786   -0.0133 C.ar      1 <0>        -0.0624
      6 C6          0.0021   -0.0041    0.0020 C.ar      1 <0>        -0.0962
      7 C7          1.3000   -2.1396   -0.0224 C.2       1 <0>         0.1424
      8 N1          2.4575   -2.7306   -0.0371 N.2       1 <0>        -0.2329
      9 N2          3.6626   -2.0276   -0.0452 N.am      1 <0>        -0.5351
     10 C8          3.6977   -0.6787   -0.0384 C.2       1 <0>         0.5284
     11 O1          4.7616   -0.0856   -0.0461 O.2       1 <0>        -0.5222
     12 C9          0.0356   -2.9595   -0.0143 C.3       1 <0>        -0.0601
     13 C10         0.3924   -4.4473   -0.0264 C.3       1 <0>        -0.1116
     14 C11        -0.8913   -5.2797   -0.0182 C.3       1 <0>        -0.1199
     15 C12        -0.5346   -6.7674   -0.0303 C.3       1 <0>        -0.1160
     16 C13        -1.8183   -7.5998   -0.0220 C.3       1 <0>         0.0544
     17 N3         -1.4757   -9.0283   -0.0337 N.3       1 <0>        -0.5386
     18 C14        -0.8306   -9.4051   -1.2998 C.3       1 <0>         0.0146
     19 C15        -0.4375  -10.8837   -1.2458 C.3       1 <0>         0.0621
     20 O2         -1.6002  -11.6713   -0.9753 O.3       1 <0>        -0.3859
     21 C16        -2.2533  -11.3314    0.2508 C.3       1 <0>         0.0626
     22 C17        -2.6648   -9.8572    0.2120 C.3       1 <0>         0.0169
     23 H1         -0.9631    1.8823    0.0259 H         1 <0>         0.1364
     24 H2          1.1269    3.1717    0.0083 H         1 <0>         0.1374
     25 H3          3.3010    2.0277   -0.0197 H         1 <0>         0.1434
     26 H4         -0.9242   -0.5594    0.0075 H         1 <0>         0.1414
     27 H5         -0.5398   -2.7311    0.8829 H         1 <0>         0.0959
     28 H6         -0.5578   -2.7210   -0.8970 H         1 <0>         0.0953
     29 H7          0.9677   -4.6756   -0.9236 H         1 <0>         0.0707
     30 H8          0.9858   -4.6858    0.8562 H         1 <0>         0.0722
     31 H9         -1.4667   -5.0513    0.8790 H         1 <0>         0.0649
     32 H10        -1.4847   -5.0411   -0.9008 H         1 <0>         0.0623
     33 H11         0.0408   -6.9958   -0.9275 H         1 <0>         0.0628
     34 H12         0.0588   -7.0060    0.8524 H         1 <0>         0.0725
     35 H13        -2.3936   -7.3715    0.8751 H         1 <0>         0.0760
     36 H14        -2.4117   -7.3613   -0.9047 H         1 <0>         0.0347
     37 H15        -1.5247   -9.2428   -2.1244 H         1 <0>         0.0425
     38 H16         0.0614   -8.7966   -1.4490 H         1 <0>         0.0895
     39 H17        -0.0106  -11.1821   -2.2033 H         1 <0>         0.0983
     40 H18         0.2974  -11.0364   -0.4555 H         1 <0>         0.0603
     41 H19        -3.1396  -11.9534    0.3757 H         1 <0>         0.0986
     42 H20        -1.5712  -11.4970    1.0846 H         1 <0>         0.0604
     43 H21        -3.1117   -9.5788    1.1663 H         1 <0>         0.0866
     44 H22        -3.3882   -9.7022   -0.5885 H         1 <0>         0.0427
     45 H23         4.4973   -2.5216   -0.0562 H         1 <0>         0.4363
@<TRIPOS>BOND
     1    1    6 ar
     2    1    2 ar
     3    1   23 1
     4    2    3 ar
     5    2   24 1
     6    3    4 ar
     7    3   25 1
     8    4   10 1
     9    4    5 ar
    10    5    6 ar
    11    5    7 1
    12    6   26 1
    13    7    8 2
    14    7   12 1
    15    8    9 1
    16    9   10 am
    17    9   45 1
    18   10   11 2
    19   12   13 1
    20   12   27 1
    21   12   28 1
    22   13   14 1
    23   13   29 1
    24   13   30 1
    25   14   15 1
    26   14   31 1
    27   14   32 1
    28   15   16 1
    29   15   33 1
    30   15   34 1
    31   16   17 1
    32   16   35 1
    33   16   36 1
    34   17   22 1
    35   17   18 1
    36   18   19 1
    37   18   37 1
    38   18   38 1
    39   19   20 1
    40   19   39 1
    41   19   40 1
    42   20   21 1
    43   21   22 1
    44   21   41 1
    45   21   42 1
    46   22   43 1
    47   22   44 1
@<TRIPOS>MOLECULE
CHEMBL194684__1
   46    48     0     0     0
SMALL
USER_CHARGES

@<TRIPOS>ATOM
      1 C1         -0.0165    1.3627    0.0095 C.ar      1 <0>        -0.0869
      2 C2          1.1654    2.0924    0.0022 C.ar      1 <0>        -0.1061
      3 C3          2.3861    1.4540   -0.0134 C.ar      1 <0>        -0.0537
      4 C4          2.4294    0.0605   -0.0213 C.ar      1 <0>        -0.1250
      5 C5          1.2244   -0.6786   -0.0133 C.ar      1 <0>        -0.0680
      6 C6          0.0021   -0.0041    0.0020 C.ar      1 <0>        -0.0976
      7 C7          1.3000   -2.1396   -0.0224 C.2       1 <0>         0.1404
      8 N1          2.4575   -2.7306   -0.0371 N.2       1 <0>        -0.2387
      9 N2          3.6626   -2.0276   -0.0452 N.am      1 <0>        -0.5357
     10 C8          3.6977   -0.6787   -0.0384 C.2       1 <0>         0.5285
     11 O1          4.7616   -0.0856   -0.0461 O.2       1 <0>        -0.5136
     12 C9          0.0356   -2.9595   -0.0143 C.3       1 <0>        -0.0585
     13 C10         0.3924   -4.4473   -0.0264 C.3       1 <0>        -0.1142
     14 C11        -0.8913   -5.2797   -0.0182 C.3       1 <0>        -0.1191
     15 C12        -0.5346   -6.7674   -0.0303 C.3       1 <0>        -0.1493
     16 C13        -1.8183   -7.5998   -0.0220 C.3       1 <0>        -0.0103
     17 N3         -1.4757   -9.0283   -0.0337 N.4       1 <0>        -0.3861
     18 C14        -0.8059   -9.3612   -1.2984 C.3       1 <0>        -0.0479
     19 C15        -0.4498  -10.8499   -1.3080 C.3       1 <0>         0.0356
     20 O2         -1.6407  -11.6208   -1.1255 O.3       1 <0>        -0.3568
     21 C16        -2.3426  -11.3152    0.0828 C.3       1 <0>         0.0353
     22 C17        -2.7021   -9.8273    0.0949 C.3       1 <0>        -0.0435
     23 H1         -0.9631    1.8823    0.0259 H         1 <0>         0.1380
     24 H2          1.1269    3.1717    0.0083 H         1 <0>         0.1402
     25 H3          3.3010    2.0277   -0.0197 H         1 <0>         0.1456
     26 H4         -0.9242   -0.5594    0.0075 H         1 <0>         0.1395
     27 H5         -0.5398   -2.7311    0.8829 H         1 <0>         0.0973
     28 H6         -0.5578   -2.7210   -0.8970 H         1 <0>         0.0972
     29 H7          0.9677   -4.6756   -0.9236 H         1 <0>         0.0756
     30 H8          0.9858   -4.6858    0.8562 H         1 <0>         0.0759
     31 H9         -1.4667   -5.0513    0.8790 H         1 <0>         0.0765
     32 H10        -1.4847   -5.0411   -0.9008 H         1 <0>         0.0762
     33 H11         0.0408   -6.9958   -0.9275 H         1 <0>         0.0878
     34 H12         0.0588   -7.0060    0.8524 H         1 <0>         0.0883
     35 H13        -2.3936   -7.3715    0.8751 H         1 <0>         0.1329
     36 H14        -2.4117   -7.3613   -0.9047 H         1 <0>         0.1308
     37 H15        -1.4729   -9.1415   -2.1320 H         1 <0>         0.1391
     38 H16         0.1042   -8.7691   -1.3948 H         1 <0>         0.1437
     39 H17         0.0084  -11.1085   -2.2626 H         1 <0>         0.1418
     40 H18         0.2489  -11.0623   -0.4987 H         1 <0>         0.0811
     41 H19        -3.2542  -11.9104    0.1347 H         1 <0>         0.1420
     42 H20        -1.7087  -11.5434    0.9396 H         1 <0>         0.0811
     43 H21        -3.1998   -9.5812    1.0329 H         1 <0>         0.1426
     44 H22        -3.3685   -9.6075   -0.7392 H         1 <0>         0.1387
     45 H23         4.4973   -2.5216   -0.0562 H         1 <0>         0.4366
     46 H24        -0.8586   -9.2326    0.7380 H         1 <0>         0.4229
@<TRIPOS>BOND
     1    1    6 ar
     2    1    2 ar
     3    1   23 1
     4    2    3 ar
     5    2   24 1
     6    3    4 ar
     7    3   25 1
     8    4   10 1
     9    4    5 ar
    10    5    6 ar
    11    5    7 1
    12    6   26 1
    13    7    8 2
    14    7   12 1
    15    8    9 1
    16    9   10 am
    17    9   45 1
    18   10   11 2
    19   12   13 1
    20   12   27 1
    21   12   28 1
    22   13   14 1
    23   13   29 1
    24   13   30 1
    25   14   15 1
    26   14   31 1
    27   14   32 1
    28   15   16 1
    29   15   33 1
    30   15   34 1
    31   16   17 1
    32   16   35 1
    33   16   36 1
    34   17   22 1
    35   17   18 1
    36   17   46 1
    37   18   19 1
    38   18   37 1
    39   18   38 1
    40   19   20 1
    41   19   39 1
    42   19   40 1
    43   20   21 1
    44   21   22 1
    45   21   41 1
    46   21   42 1
    47   22   43 1
    48   22   44 1
@<TRIPOS>MOLECULE
CHEMBL373210
   42    44     0     0     0
SMALL
USER_CHARGES

@<TRIPOS>ATOM
      1 C1         -0.0165    1.3627    0.0095 C.ar      1 <0>        -0.0883
      2 C2          1.1654    2.0924    0.0022 C.ar      1 <0>        -0.1107
      3 C3          2.3861    1.4540   -0.0134 C.ar      1 <0>        -0.0554
      4 C4          2.4294    0.0605   -0.0213 C.ar      1 <0>        -0.1266
      5 C5          1.2244   -0.6786   -0.0133 C.ar      1 <0>        -0.0626
      6 C6          0.0021   -0.0041    0.0020 C.ar      1 <0>        -0.0960
      7 C7          1.3000   -2.1396   -0.0224 C.2       1 <0>         0.1429
      8 N1          2.4575   -2.7306   -0.0371 N.2       1 <0>        -0.2339
      9 N2          3.6626   -2.0276   -0.0452 N.am      1 <0>        -0.5353
     10 C8          3.6977   -0.6787   -0.0384 C.2       1 <0>         0.5284
     11 O1          4.7616   -0.0856   -0.0461 O.2       1 <0>        -0.5220
     12 C9          0.0356   -2.9595   -0.0143 C.3       1 <0>        -0.0584
     13 C10         0.3924   -4.4473   -0.0264 C.3       1 <0>        -0.1118
     14 C11        -0.8913   -5.2797   -0.0182 C.3       1 <0>        -0.1174
     15 C12        -0.5346   -6.7674   -0.0303 C.3       1 <0>         0.0546
     16 N3         -1.7671   -7.5666   -0.0224 N.3       1 <0>        -0.5383
     17 C13        -2.4957   -7.3988    1.2434 C.3       1 <0>         0.0142
     18 C14        -3.7994   -8.1994    1.1856 C.3       1 <0>         0.0621
     19 O2         -3.4991   -9.5706    0.9115 O.3       1 <0>        -0.3859
     20 C15        -2.7902   -9.7707   -0.3144 C.3       1 <0>         0.0628
     21 C16        -1.4763   -8.9860   -0.2718 C.3       1 <0>         0.0166
     22 H1         -0.9631    1.8823    0.0259 H         1 <0>         0.1366
     23 H2          1.1269    3.1717    0.0083 H         1 <0>         0.1375
     24 H3          3.3010    2.0277   -0.0197 H         1 <0>         0.1434
     25 H4         -0.9242   -0.5594    0.0075 H         1 <0>         0.1417
     26 H5         -0.5398   -2.7311    0.8829 H         1 <0>         0.0957
     27 H6         -0.5578   -2.7210   -0.8970 H         1 <0>         0.0972
     28 H7          0.9677   -4.6756   -0.9236 H         1 <0>         0.0726
     29 H8          0.9858   -4.6858    0.8562 H         1 <0>         0.0702
     30 H9         -1.4667   -5.0513    0.8790 H         1 <0>         0.0638
     31 H10        -1.4847   -5.0411   -0.9008 H         1 <0>         0.0737
     32 H11         0.0408   -6.9958   -0.9275 H         1 <0>         0.0771
     33 H12         0.0588   -7.0060    0.8524 H         1 <0>         0.0360
     34 H13        -1.8818   -7.7619    2.0677 H         1 <0>         0.0426
     35 H14        -2.7231   -6.3436    1.3954 H         1 <0>         0.0894
     36 H15        -4.3155   -8.1242    2.1428 H         1 <0>         0.0981
     37 H16        -4.4363   -7.8014    0.3957 H         1 <0>         0.0602
     38 H17        -2.5763  -10.8319   -0.4421 H         1 <0>         0.0986
     39 H18        -3.3977   -9.4183   -1.1479 H         1 <0>         0.0604
     40 H19        -0.9595   -9.0894   -1.2259 H         1 <0>         0.0869
     41 H20        -0.8461   -9.3744    0.5283 H         1 <0>         0.0431
     42 H21         4.4973   -2.5216   -0.0562 H         1 <0>         0.4362
@<TRIPOS>BOND
     1    1    6 ar
     2    1    2 ar
     3    1   22 1
     4    2    3 ar
     5    2   23 1
     6    3    4 ar
     7    3   24 1
     8    4   10 1
     9    4    5 ar
    10    5    6 ar
    11    5    7 1
    12    6   25 1
    13    7    8 2
    14    7   12 1
    15    8    9 1
    16    9   10 am
    17    9   42 1
    18   10   11 2
    19   12   13 1
    20   12   26 1
    21   12   27 1
    22   13   14 1
    23   13   28 1
    24   13   29 1
    25   14   15 1
    26   14   30 1
    27   14   31 1
    28   15   16 1
    29   15   32 1
    30   15   33 1
    31   16   21 1
    32   16   17 1
    33   17   18 1
    34   17   34 1
    35   17   35 1
    36   18   19 1
    37   18   36 1
    38   18   37 1
    39   19   20 1
    40   20   21 1
    41   20   38 1
    42   20   39 1
    43   21   40 1
    44   21   41 1
@<TRIPOS>MOLECULE
CHEMBL373210__1
   43    45     0     0     0
SMALL
USER_CHARGES

@<TRIPOS>ATOM
      1 C1         -0.0165    1.3627    0.0095 C.ar      1 <0>        -0.0865
      2 C2          1.1654    2.0924    0.0022 C.ar      1 <0>        -0.1049
      3 C3          2.3861    1.4540   -0.0134 C.ar      1 <0>        -0.0530
      4 C4          2.4294    0.0605   -0.0213 C.ar      1 <0>        -0.1240
      5 C5          1.2244   -0.6786   -0.0133 C.ar      1 <0>        -0.0689
      6 C6          0.0021   -0.0041    0.0020 C.ar      1 <0>        -0.0984
      7 C7          1.3000   -2.1396   -0.0224 C.2       1 <0>         0.1379
      8 N1          2.4575   -2.7306   -0.0371 N.2       1 <0>        -0.2381
      9 N2          3.6626   -2.0276   -0.0452 N.am      1 <0>        -0.5347
     10 C8          3.6977   -0.6787   -0.0384 C.2       1 <0>         0.5286
     11 O1          4.7616   -0.0856   -0.0461 O.2       1 <0>        -0.5107
     12 C9          0.0356   -2.9595   -0.0143 C.3       1 <0>        -0.0564
     13 C10         0.3924   -4.4473   -0.0264 C.3       1 <0>        -0.1117
     14 C11        -0.8913   -5.2797   -0.0182 C.3       1 <0>        -0.1509
     15 C12        -0.5346   -6.7674   -0.0303 C.3       1 <0>        -0.0100
     16 N3         -1.7671   -7.5666   -0.0224 N.4       1 <0>        -0.3858
     17 C13        -2.4834   -7.3500    1.2422 C.3       1 <0>        -0.0481
     18 C14        -3.7673   -8.1836    1.2478 C.3       1 <0>         0.0357
     19 O2         -3.4351   -9.5623    1.0617 O.3       1 <0>        -0.3568
     20 C15        -2.7145   -9.8209   -0.1464 C.3       1 <0>         0.0355
     21 C16        -1.4287   -8.9904   -0.1547 C.3       1 <0>        -0.0436
     22 H1         -0.9631    1.8823    0.0259 H         1 <0>         0.1383
     23 H2          1.1269    3.1717    0.0083 H         1 <0>         0.1409
     24 H3          3.3010    2.0277   -0.0197 H         1 <0>         0.1463
     25 H4         -0.9242   -0.5594    0.0075 H         1 <0>         0.1386
     26 H5         -0.5398   -2.7311    0.8829 H         1 <0>         0.0988
     27 H6         -0.5578   -2.7210   -0.8970 H         1 <0>         0.0991
     28 H7          0.9677   -4.6756   -0.9236 H         1 <0>         0.0841
     29 H8          0.9858   -4.6858    0.8562 H         1 <0>         0.0838
     30 H9         -1.4667   -5.0513    0.8790 H         1 <0>         0.0887
     31 H10        -1.4847   -5.0411   -0.9008 H         1 <0>         0.0895
     32 H11         0.0408   -6.9958   -0.9275 H         1 <0>         0.1341
     33 H12         0.0588   -7.0060    0.8524 H         1 <0>         0.1320
     34 H13        -1.8496   -7.6528    2.0756 H         1 <0>         0.1391
     35 H14        -2.7350   -6.2941    1.3413 H         1 <0>         0.1437
     36 H15        -4.2786   -8.0579    2.2022 H         1 <0>         0.1416
     37 H16        -4.4190   -7.8537    0.4388 H         1 <0>         0.0810
     38 H17        -2.4639  -10.8803   -0.2011 H         1 <0>         0.1420
     39 H18        -3.3302   -9.5471   -1.0032 H         1 <0>         0.0812
     40 H19        -0.8974   -9.1522   -1.0925 H         1 <0>         0.1428
     41 H20        -0.7953   -9.2926    0.6793 H         1 <0>         0.1389
     42 H21         4.4973   -2.5216   -0.0562 H         1 <0>         0.4376
     43 H22        -2.3542   -7.2872   -0.7939 H         1 <0>         0.4228
@<TRIPOS>BOND
     1    1    6 ar
     2    1    2 ar
     3    1   22 1
     4    2    3 ar
     5    2   23 1
     6    3    4 ar
     7    3   24 1
     8    4   10 1
     9    4    5 ar
    10    5    6 ar
    11    5    7 1
    12    6   25 1
    13    7    8 2
    14    7   12 1
    15    8    9 1
    16    9   10 am
    17    9   42 1
    18   10   11 2
    19   12   13 1
    20   12   26 1
    21   12   27 1
    22   13   14 1
    23   13   28 1
    24   13   29 1
    25   14   15 1
    26   14   30 1
    27   14   31 1
    28   15   16 1
    29   15   32 1
    30   15   33 1
    31   16   21 1
    32   16   17 1
    33   16   43 1
    34   17   18 1
    35   17   34 1
    36   17   35 1
    37   18   19 1
    38   18   36 1
    39   18   37 1
    40   19   20 1
    41   20   21 1
    42   20   38 1
    43   20   39 1
    44   21   40 1
    45   21   41 1
@<TRIPOS>MOLECULE
CHEMBL310320
   42    45     0     0     0
SMALL
USER_CHARGES

@<TRIPOS>ATOM
      1 C1         -0.0165    1.3631    0.0095 C.ar      1 <0>        -0.0771
      2 C2          1.1649    2.0935    0.0022 C.ar      1 <0>        -0.1244
      3 C3          2.3791    1.4638   -0.0123 C.ar      1 <0>        -0.0483
      4 C4          2.4269    0.0700   -0.0198 C.ar      1 <0>        -0.1466
      5 C5          1.2279   -0.6733   -0.0132 C.ar      1 <0>        -0.0067
      6 C6          0.0021   -0.0041    0.0020 C.ar      1 <0>        -0.1236
      7 C7          1.2981   -2.1430   -0.0228 C.2       1 <0>        -0.1263
      8 C8          2.4957   -2.7406   -0.0443 C.2       1 <0>         0.1039
      9 N1          3.6624   -2.0110   -0.0416 N.am      1 <0>        -0.6348
     10 C9          3.6937   -0.6686   -0.0330 C.2       1 <0>         0.5538
     11 O1          4.7568   -0.0742   -0.0366 O.2       1 <0>        -0.5127
     12 C10         2.6455   -4.2441   -0.0911 C.3       1 <0>         0.1381
     13 N2          1.3569   -4.8871    0.1785 N.am      1 <0>        -0.5822
     14 C11         0.1733   -4.3267   -0.4961 C.3       1 <0>         0.1072
     15 C12        -0.0062   -2.8954    0.0061 C.3       1 <0>        -0.0840
     16 C13         1.2588   -5.9454    1.0073 C.2       1 <0>         0.5164
     17 O2          0.1786   -6.4574    1.2117 O.2       1 <0>        -0.5175
     18 C14         2.4914   -6.4925    1.6799 C.3       1 <0>        -0.0019
     19 H1          2.9561   -5.7173    2.2892 H         1 <0>         0.1675
     20 C15         3.4909   -6.9942    0.6166 C.3       1 <0>        -0.1390
     21 C16         4.0771   -8.2759    1.2650 C.3       1 <0>        -0.1407
     22 C17         2.8434   -8.8405    2.0126 C.3       1 <0>        -0.0072
     23 N3          2.1315   -7.6461    2.5248 N.4       1 <0>        -0.5028
     24 H2         -0.9632    1.8825    0.0259 H         1 <0>         0.1344
     25 H3          1.1243    3.1728    0.0076 H         1 <0>         0.1363
     26 H4          3.2922    2.0405   -0.0183 H         1 <0>         0.1417
     27 H5         -0.9229   -0.5615    0.0081 H         1 <0>         0.1358
     28 H6          2.9984   -4.5416   -1.0785 H         1 <0>         0.1111
     29 H7          3.3705   -4.5586    0.6597 H         1 <0>         0.1015
     30 H8          0.3288   -4.3237   -1.5749 H         1 <0>         0.0951
     31 H9         -0.7081   -4.9187   -0.2498 H         1 <0>         0.1128
     32 H10        -0.3823   -2.9198    1.0289 H         1 <0>         0.0873
     33 H11        -0.7293   -2.3821   -0.6277 H         1 <0>         0.1029
     34 H12         2.9759   -7.2339   -0.3137 H         1 <0>         0.1082
     35 H13         4.2744   -6.2559    0.4454 H         1 <0>         0.1242
     36 H14         4.4258   -8.9740    0.5041 H         1 <0>         0.1245
     37 H15         4.8774   -8.0294    1.9628 H         1 <0>         0.1057
     38 H16         2.2063   -9.3983    1.3263 H         1 <0>         0.1371
     39 H17         3.1592   -9.4760    2.8400 H         1 <0>         0.1446
     40 H18         2.4068   -7.4672    3.4789 H         1 <0>         0.4367
     41 H19         4.5053   -2.4909   -0.0458 H         1 <0>         0.4113
     42 H20         1.1352   -7.7997    2.4832 H         1 <0>         0.4376
@<TRIPOS>BOND
     1    1    6 ar
     2    1    2 ar
     3    1   24 1
     4    2    3 ar
     5    2   25 1
     6    3    4 ar
     7    3   26 1
     8    4   10 1
     9    4    5 ar
    10    5    6 ar
    11    5    7 1
    12    6   27 1
    13    7   15 1
    14    7    8 2
    15    8    9 1
    16    8   12 1
    17    9   10 am
    18    9   41 1
    19   10   11 2
    20   12   13 1
    21   12   28 1
    22   12   29 1
    23   13   14 1
    24   13   16 am
    25   14   15 1
    26   14   30 1
    27   14   31 1
    28   15   32 1
    29   15   33 1
    30   16   17 2
    31   16   18 1
    32   18   19 1
    33   18   23 1
    34   18   20 1
    35   20   21 1
    36   20   34 1
    37   20   35 1
    38   21   22 1
    39   21   36 1
    40   21   37 1
    41   22   23 1
    42   22   38 1
    43   22   39 1
    44   23   40 1
    45   23   42 1
@<TRIPOS>MOLECULE
CHEMBL83760
   28    30     0     0     0
SMALL
USER_CHARGES

@<TRIPOS>ATOM
      1 C1         -0.0165    1.3631    0.0095 C.ar      1 <0>        -0.0807
      2 C2          1.1649    2.0936    0.0022 C.ar      1 <0>        -0.1384
      3 C3          2.3791    1.4639   -0.0125 C.ar      1 <0>        -0.0476
      4 C4          2.4268    0.0703   -0.0199 C.ar      1 <0>        -0.1560
      5 C5          1.2278   -0.6734   -0.0131 C.ar      1 <0>         0.0091
      6 C6          0.0021   -0.0041    0.0020 C.ar      1 <0>        -0.1286
      7 C7          1.2992   -2.1425   -0.0236 C.2       1 <0>        -0.1580
      8 C8          2.4957   -2.7421   -0.0427 C.2       1 <0>         0.1449
      9 N1          3.6623   -2.0110   -0.0428 N.am      1 <0>        -0.6352
     10 C9          3.6933   -0.6689   -0.0342 C.2       1 <0>         0.5495
     11 O1          4.7564   -0.0746   -0.0386 O.2       1 <0>        -0.5296
     12 C10         2.6479   -4.2439   -0.0766 C.3       1 <0>        -0.0887
     13 C11         1.3606   -4.9323    0.3676 C.3       1 <0>        -0.1163
     14 C12         0.1999   -4.3457   -0.4460 C.3       1 <0>        -0.1237
     15 C13        -0.0032   -2.8987   -0.0038 C.3       1 <0>        -0.0622
     16 H1         -0.9633    1.8824    0.0259 H         1 <0>         0.1292
     17 H2          1.1242    3.1729    0.0078 H         1 <0>         0.1306
     18 H3          3.2922    2.0406   -0.0187 H         1 <0>         0.1372
     19 H4         -0.9229   -0.5615    0.0074 H         1 <0>         0.1345
     20 H5          2.8892   -4.5567   -1.0925 H         1 <0>         0.0900
     21 H6          3.4591   -4.5369    0.5898 H         1 <0>         0.0840
     22 H7          1.4341   -6.0041    0.1836 H         1 <0>         0.0772
     23 H8          1.1940   -4.7512    1.4295 H         1 <0>         0.0717
     24 H9          0.4426   -4.3756   -1.5082 H         1 <0>         0.0686
     25 H10        -0.7080   -4.9191   -0.2587 H         1 <0>         0.0744
     26 H11        -0.4090   -2.8869    1.0078 H         1 <0>         0.0762
     27 H12        -0.7093   -2.4138   -0.6779 H         1 <0>         0.0767
     28 H13         4.5055   -2.4905   -0.0494 H         1 <0>         0.4114
@<TRIPOS>BOND
     1    1    6 ar
     2    1    2 ar
     3    1   16 1
     4    2    3 ar
     5    2   17 1
     6    3    4 ar
     7    3   18 1
     8    4   10 1
     9    4    5 ar
    10    5    6 ar
    11    5    7 1
    12    6   19 1
    13    7   15 1
    14    7    8 2
    15    8    9 1
    16    8   12 1
    17    9   10 am
    18    9   28 1
    19   10   11 2
    20   12   13 1
    21   12   20 1
    22   12   21 1
    23   13   14 1
    24   13   22 1
    25   13   23 1
    26   14   15 1
    27   14   24 1
    28   14   25 1
    29   15   26 1
    30   15   27 1
@<TRIPOS>MOLECULE
CHEMBL303843
   39    43     0     0     0
SMALL
USER_CHARGES

@<TRIPOS>ATOM
      1 C1          0.6836    0.1492   -2.8647 C.ar      1 <0>        -0.1106
      2 C2          1.8732    0.8736   -2.8916 C.ar      1 <0>        -0.1102
      3 C3          2.8580    0.6372   -1.9802 C.ar      1 <0>        -0.0987
      4 C4          2.6749   -0.3480   -1.0002 C.ar      1 <0>        -0.0177
      5 C5          1.4663   -1.0855   -0.9710 C.ar      1 <0>        -0.0530
      6 C6          0.4719   -0.8148   -1.9271 C.ar      1 <0>        -0.1070
      7 C7          1.2810   -2.0731    0.0117 C.ar      1 <0>        -0.0800
      8 C8          2.2591   -2.3171    0.9287 C.ar      1 <0>        -0.1216
      9 C9          3.4512   -1.6037    0.9157 C.ar      1 <0>        -0.0832
     10 C10         3.6766   -0.6210   -0.0359 C.ar      1 <0>        -0.0244
     11 C11         4.9451    0.1331   -0.0439 C.2       1 <0>         0.3338
     12 N1          5.0471    1.4383   -0.1259 N.2       1 <0>        -0.4648
     13 C12         6.3558    1.7903   -0.1173 C.ar      1 <0>         0.0396
     14 C13         7.0217    3.0086   -0.2915 C.ar      1 <0>        -0.0291
     15 C14         8.3979    3.0534   -0.2285 C.ar      1 <0>        -0.1373
     16 C15         9.1329    1.9134    0.0340 C.ar      1 <0>        -0.0301
     17 C16         8.4943    0.6830    0.2211 C.ar      1 <0>        -0.1283
     18 C17         7.1027    0.6171    0.0796 C.ar      1 <0>         0.0799
     19 N2          6.1926   -0.4232    0.0392 N.pl3     1 <0>        -0.4799
     20 C18         6.5478   -1.8224    0.0575 C.3       1 <0>         0.0820
     21 C19         7.8867   -2.0954   -0.5819 C.3       1 <0>         0.0953
     22 N3          9.0054   -1.7583    0.2661 N.am      1 <0>        -0.7179
     23 C20         9.2925   -0.4896    0.5904 C.2       1 <0>         0.5617
     24 O1         10.2899   -0.3012    1.2599 O.2       1 <0>        -0.5344
     25 H1         -0.0836    0.3585   -3.5954 H         1 <0>         0.1263
     26 H2          2.0171    1.6331   -3.6458 H         1 <0>         0.1258
     27 H3          3.7754    1.2061   -2.0129 H         1 <0>         0.1355
     28 H4         -0.4550   -1.3690   -1.9181 H         1 <0>         0.1310
     29 H5          0.3618   -2.6393    0.0404 H         1 <0>         0.1338
     30 H6          2.1046   -3.0783    1.6791 H         1 <0>         0.1324
     31 H7          4.2100   -1.8170    1.6540 H         1 <0>         0.1249
     32 H8          6.4587    3.9117   -0.4752 H         1 <0>         0.1393
     33 H9          8.9083    3.9919   -0.3869 H         1 <0>         0.1420
     34 H10        10.2096    1.9726    0.0949 H         1 <0>         0.1428
     35 H11         6.5763   -2.1642    1.0921 H         1 <0>         0.0865
     36 H12         5.7823   -2.3862   -0.4756 H         1 <0>         0.1102
     37 H13         7.9448   -3.1546   -0.8328 H         1 <0>         0.1147
     38 H14         7.9590   -1.5164   -1.5026 H         1 <0>         0.0797
     39 H15         9.5702   -2.4715    0.6027 H         1 <0>         0.4113
@<TRIPOS>BOND
     1    1    6 ar
     2    1    2 ar
     3    1   25 1
     4    2    3 ar
     5    2   26 1
     6    3    4 ar
     7    3   27 1
     8    4   10 ar
     9    4    5 ar
    10    5    6 ar
    11    5    7 ar
    12    6   28 1
    13    7    8 ar
    14    7   29 1
    15    8    9 ar
    16    8   30 1
    17    9   10 ar
    18    9   31 1
    19   10   11 1
    20   11   19 1
    21   11   12 2
    22   12   13 1
    23   13   18 ar
    24   13   14 ar
    25   14   15 ar
    26   14   32 1
    27   15   16 ar
    28   15   33 1
    29   16   17 ar
    30   16   34 1
    31   17   23 1
    32   17   18 ar
    33   18   19 1
    34   19   20 1
    35   20   21 1
    36   20   35 1
    37   20   36 1
    38   21   22 1
    39   21   37 1
    40   21   38 1
    41   22   23 am
    42   22   39 1
    43   23   24 2
@<TRIPOS>MOLECULE
CHEMBL294060
   26    28     0     0     0
SMALL
USER_CHARGES

@<TRIPOS>ATOM
      1 C1         -0.0184    1.5028    0.0103 C.3       1 <0>        -0.0792
      2 C2          0.0021   -0.0041    0.0020 C.2       1 <0>         0.2908
      3 N1          0.0076   -0.7437   -1.0682 N.2       1 <0>        -0.4847
      4 C3          0.0267   -2.0547   -0.7131 C.ar      1 <0>         0.0400
      5 C4         -0.0628   -3.2475   -1.4362 C.ar      1 <0>        -0.0316
      6 C5         -0.0318   -4.4559   -0.7735 C.ar      1 <0>        -0.1379
      7 C6          0.1179   -4.5077    0.5990 C.ar      1 <0>        -0.0334
      8 C7          0.2266   -3.3311    1.3463 C.ar      1 <0>        -0.1286
      9 C8          0.1208   -2.1004    0.6859 C.ar      1 <0>         0.0746
     10 N2          0.0233   -0.7889    1.1117 N.pl3     1 <0>        -0.4885
     11 C9         -0.0737   -0.3817    2.4937 C.3       1 <0>         0.0831
     12 C10        -0.7653   -1.4065    3.3584 C.3       1 <0>         0.0946
     13 N3          0.0755   -2.5282    3.7033 N.am      1 <0>        -0.7187
     14 C11         0.4843   -3.4174    2.7869 C.2       1 <0>         0.5617
     15 O1          1.1353   -4.3640    3.1850 O.2       1 <0>        -0.5349
     16 H1          1.0042    1.8801    0.0026 H         1 <0>         0.0915
     17 H2         -0.5455    1.8639   -0.8728 H         1 <0>         0.0997
     18 H3         -0.5286    1.8543    0.9071 H         1 <0>         0.0808
     19 H4         -0.1565   -3.2225   -2.5118 H         1 <0>         0.1382
     20 H5         -0.1260   -5.3740   -1.3344 H         1 <0>         0.1412
     21 H6          0.1509   -5.4646    1.0985 H         1 <0>         0.1421
     22 H7          0.9309   -0.2144    2.8822 H         1 <0>         0.0857
     23 H8         -0.6290    0.5548    2.5461 H         1 <0>         0.1101
     24 H9         -1.0961   -0.9223    4.2772 H         1 <0>         0.1137
     25 H10        -1.6419   -1.7774    2.8271 H         1 <0>         0.0785
     26 H11         0.3441   -2.6455    4.6279 H         1 <0>         0.4109
@<TRIPOS>BOND
     1    1    2 1
     2    1   16 1
     3    1   17 1
     4    1   18 1
     5    2   10 1
     6    2    3 2
     7    3    4 1
     8    4    9 ar
     9    4    5 ar
    10    5    6 ar
    11    5   19 1
    12    6    7 ar
    13    6   20 1
    14    7    8 ar
    15    7   21 1
    16    8   14 1
    17    8    9 ar
    18    9   10 1
    19   10   11 1
    20   11   12 1
    21   11   22 1
    22   11   23 1
    23   12   13 1
    24   12   24 1
    25   12   25 1
    26   13   14 am
    27   13   26 1
    28   14   15 2
@<TRIPOS>MOLECULE
CHEMBL562175
   47    51     0     0     0
SMALL
USER_CHARGES

@<TRIPOS>ATOM
      1 C1         -0.0112    1.2782   -0.7988 C.ar      1 <0>        -0.1514
      2 C2          1.1738    1.9874   -0.9335 C.ar      1 <0>        -0.0824
      3 C3          2.3914    1.3609   -0.7660 C.ar      1 <0>        -0.1470
      4 C4          2.4293    0.0078   -0.4593 C.ar      1 <0>         0.1888
      5 C5          1.2262   -0.7082   -0.3230 C.ar      1 <0>        -0.1550
      6 C6          0.0052   -0.0555   -0.4970 C.ar      1 <0>        -0.0333
      7 C7          1.2992   -2.1386    0.0014 C.2       1 <0>         0.4767
      8 O1          0.1689   -2.8696    0.1422 O.3       1 <0>        -0.6388
      9 N1          2.4774   -2.6975    0.1523 N.2       1 <0>        -0.6087
     10 C8          3.6225   -2.0008    0.0191 C.2       1 <0>         0.3706
     11 N2          3.6261   -0.6652   -0.2822 N.pl3     1 <0>        -0.3426
     12 N3          4.9583   -0.2382   -0.3506 N.2       1 <0>        -0.3432
     13 C9          5.7466   -1.2686   -0.1015 C.2       1 <0>         0.0526
     14 C10         4.9451   -2.3945    0.1350 C.2       1 <0>        -0.2766
     15 C11         7.2242   -1.2398   -0.0778 C.2       1 <0>         0.6219
     16 O2          7.8506   -2.2757    0.0337 O.2       1 <0>        -0.5020
     17 N4          7.8770   -0.0652   -0.1798 N.am      1 <0>        -0.6266
     18 C12         7.1454    1.2109   -0.1609 C.3       1 <0>         0.0669
     19 C13         7.8030    2.1325    0.8717 C.3       1 <0>        -0.0203
     20 N5          9.2348    2.2592    0.5717 N.4       1 <0>        -0.3819
     21 C14         9.8954    0.9571    0.7270 C.3       1 <0>        -0.0185
     22 C15         9.3420   -0.0226   -0.3070 C.3       1 <0>         0.0903
     23 C16         9.8427    3.2277    1.4939 C.3       1 <0>         0.0261
     24 C17        11.3047    3.4547    1.1042 C.3       1 <0>        -0.2096
     25 C18        12.3773    3.0400    2.1134 C.3       1 <0>        -0.1687
     26 C19        12.0837    4.5225    1.8749 C.3       1 <0>        -0.1505
     27 H1         -0.9557    1.7854   -0.9292 H         1 <0>         0.1285
     28 H2          1.1426    3.0403   -1.1722 H         1 <0>         0.1278
     29 H3          3.3094    1.9197   -0.8732 H         1 <0>         0.1298
     30 H4         -0.9215   -0.6004   -0.3935 H         1 <0>         0.1432
     31 H5          5.2960   -3.3892    0.3671 H         1 <0>         0.1540
     32 H6          7.1909    1.6739   -1.1466 H         1 <0>         0.0917
     33 H7          6.1062    1.0333    0.1160 H         1 <0>         0.1737
     34 H8          7.3348    3.1160    0.8313 H         1 <0>         0.1415
     35 H9          7.6765    1.7102    1.8685 H         1 <0>         0.1318
     36 H10        10.9691    1.0744    0.5800 H         1 <0>         0.1416
     37 H11         9.7056    0.5703    1.7282 H         1 <0>         0.1321
     38 H12         9.7543   -1.0153   -0.1268 H         1 <0>         0.1358
     39 H13         9.6131    0.3137   -1.3078 H         1 <0>         0.0920
     40 H14         9.3010    4.1720    1.4380 H         1 <0>         0.1328
     41 H15         9.7938    2.8405    2.5116 H         1 <0>         0.1281
     42 H16        11.5340    3.3301    0.0459 H         1 <0>         0.1249
     43 H17        12.0414    2.6055    3.0549 H         1 <0>         0.1059
     44 H18        13.3125    2.6424    1.7191 H         1 <0>         0.1094
     45 H19        12.8256    5.1002    1.3237 H         1 <0>         0.1105
     46 H20        11.5545    5.0633    2.6595 H         1 <0>         0.1065
     47 H21         9.3511    2.5830   -0.3769 H         1 <0>         0.4218
@<TRIPOS>BOND
     1    1    6 ar
     2    1    2 ar
     3    1   27 1
     4    2    3 ar
     5    2   28 1
     6    3    4 ar
     7    3   29 1
     8    4   11 1
     9    4    5 ar
    10    5    6 ar
    11    5    7 1
    12    6   30 1
    13    7    8 1
    14    7    9 2
    15    9   10 1
    16   10   14 2
    17   10   11 1
    18   11   12 1
    19   12   13 2
    20   13   14 1
    21   13   15 1
    22   14   31 1
    23   15   16 2
    24   15   17 am
    25   17   22 1
    26   17   18 1
    27   18   19 1
    28   18   32 1
    29   18   33 1
    30   19   20 1
    31   19   34 1
    32   19   35 1
    33   20   21 1
    34   20   23 1
    35   20   47 1
    36   21   22 1
    37   21   36 1
    38   21   37 1
    39   22   38 1
    40   22   39 1
    41   23   24 1
    42   23   40 1
    43   23   41 1
    44   24   26 1
    45   24   25 1
    46   24   42 1
    47   25   26 1
    48   25   43 1
    49   25   44 1
    50   26   45 1
    51   26   46 1
@<TRIPOS>MOLECULE
CHEMBL562175__1
   46    50     0     0     0
SMALL
USER_CHARGES

@<TRIPOS>ATOM
      1 C1         -0.0105    1.2764   -0.8126 C.ar      1 <0>        -0.1579
      2 C2          1.1747    1.9855   -0.9467 C.ar      1 <0>        -0.0846
      3 C3          2.3921    1.3593   -0.7766 C.ar      1 <0>        -0.1451
      4 C4          2.4297    0.0067   -0.4678 C.ar      1 <0>         0.1951
      5 C5          1.2265   -0.7092   -0.3321 C.ar      1 <0>        -0.1589
      6 C6          0.0056   -0.0569   -0.5088 C.ar      1 <0>        -0.0366
      7 C7          1.2992   -2.1391   -0.0055 C.2       1 <0>         0.4747
      8 O1          0.1688   -2.8701    0.1349 O.3       1 <0>        -0.6565
      9 N1          2.4772   -2.6977    0.1479 N.2       1 <0>        -0.6113
     10 C8          3.6225   -2.0010    0.0153 C.2       1 <0>         0.3597
     11 N2          3.6264   -0.6659   -0.2881 N.pl3     1 <0>        -0.3505
     12 N3          4.9586   -0.2388   -0.3553 N.2       1 <0>        -0.3216
     13 C9          5.7467   -1.2688   -0.1035 C.2       1 <0>         0.0664
     14 C10         4.9449   -2.3944    0.1336 C.2       1 <0>        -0.2827
     15 C11         7.2242   -1.2398   -0.0778 C.2       1 <0>         0.6086
     16 O2          7.8505   -2.2755    0.0354 O.2       1 <0>        -0.5306
     17 N4          7.8770   -0.0652   -0.1798 N.am      1 <0>        -0.6055
     18 C12         7.1442    1.2099   -0.1608 C.3       1 <0>         0.0947
     19 C13         7.7886    2.1261    0.8849 C.3       1 <0>         0.0421
     20 N5          9.2273    2.2406    0.6111 N.3       1 <0>        -0.5360
     21 C14         9.8991    0.9405    0.7386 C.3       1 <0>         0.0436
     22 C15         9.3418   -0.0241   -0.3070 C.3       1 <0>         0.1172
     23 C16         9.8512    3.2435    1.4844 C.3       1 <0>         0.0858
     24 C17        11.2799    3.5154    1.0092 C.3       1 <0>        -0.1450
     25 C18        12.4219    3.1537    1.9610 C.3       1 <0>        -0.1849
     26 C19        12.0625    4.6213    1.7203 C.3       1 <0>        -0.1782
     27 H1         -0.9549    1.7833   -0.9450 H         1 <0>         0.1242
     28 H2          1.1437    3.0380   -1.1870 H         1 <0>         0.1258
     29 H3          3.3102    1.9181   -0.8834 H         1 <0>         0.1334
     30 H4         -0.9211   -0.6017   -0.4057 H         1 <0>         0.1394
     31 H5          5.2956   -3.3887    0.3677 H         1 <0>         0.1515
     32 H6          7.2003    1.6791   -1.1430 H         1 <0>         0.0723
     33 H7          6.1021    1.0294    0.1029 H         1 <0>         0.1357
     34 H8          7.3293    3.1134    0.8359 H         1 <0>         0.0861
     35 H9          7.6400    1.7044    1.8790 H         1 <0>         0.0371
     36 H10        10.9704    1.0679    0.5834 H         1 <0>         0.0887
     37 H11         9.7211    0.5352    1.7347 H         1 <0>         0.0372
     38 H12         9.7518   -1.0201   -0.1399 H         1 <0>         0.0958
     39 H13         9.6131    0.3242   -1.3035 H         1 <0>         0.0738
     40 H14         9.2739    4.1673    1.4472 H         1 <0>         0.0786
     41 H15         9.8738    2.8702    2.5082 H         1 <0>         0.0343
     42 H16        11.4534    3.3831   -0.0587 H         1 <0>         0.1132
     43 H17        12.1554    2.7220    2.9257 H         1 <0>         0.0913
     44 H18        13.3469    2.7831    1.5193 H         1 <0>         0.0932
     45 H19        12.7511    5.2162    1.1202 H         1 <0>         0.0941
     46 H20        11.5596    5.1551    2.5266 H         1 <0>         0.0922
@<TRIPOS>BOND
     1    1    6 ar
     2    1    2 ar
     3    1   27 1
     4    2    3 ar
     5    2   28 1
     6    3    4 ar
     7    3   29 1
     8    4   11 1
     9    4    5 ar
    10    5    6 ar
    11    5    7 1
    12    6   30 1
    13    7    8 1
    14    7    9 2
    15    9   10 1
    16   10   14 2
    17   10   11 1
    18   11   12 1
    19   12   13 2
    20   13   14 1
    21   13   15 1
    22   14   31 1
    23   15   16 2
    24   15   17 am
    25   17   22 1
    26   17   18 1
    27   18   19 1
    28   18   32 1
    29   18   33 1
    30   19   20 1
    31   19   34 1
    32   19   35 1
    33   20   21 1
    34   20   23 1
    35   21   22 1
    36   21   36 1
    37   21   37 1
    38   22   38 1
    39   22   39 1
    40   23   24 1
    41   23   40 1
    42   23   41 1
    43   24   26 1
    44   24   25 1
    45   24   42 1
    46   25   26 1
    47   25   43 1
    48   25   44 1
    49   26   45 1
    50   26   46 1
@<TRIPOS>MOLECULE
CHEMBL610171
   38    40     0     0     0
SMALL
USER_CHARGES

@<TRIPOS>ATOM
      1 C1         -0.0178    1.4648    0.0101 C.3       1 <0>        -0.0483
      2 N1          0.0021   -0.0041    0.0020 N.4       1 <0>        -0.5103
      3 C2          0.6897   -0.4778   -1.2066 C.3       1 <0>         0.0468
      4 C3          0.7101   -1.9847   -1.2149 C.ar      1 <0>        -0.1776
      5 C4          1.7601   -2.6637   -0.6243 C.ar      1 <0>        -0.0655
      6 C5          1.7815   -4.0446   -0.6298 C.ar      1 <0>        -0.1069
      7 C6          0.7472   -4.7512   -1.2293 C.ar      1 <0>         0.1905
      8 C7         -0.3058   -4.0664   -1.8215 C.ar      1 <0>        -0.1351
      9 C8         -0.3240   -2.6854   -1.8080 C.ar      1 <0>        -0.0634
     10 N2          0.7662   -6.1517   -1.2370 N.pl3     1 <0>        -0.2930
     11 C9         -0.1751   -6.9323   -1.7905 C.2       1 <0>         0.0895
     12 C10         0.1983   -8.2504   -1.5936 C.ar      1 <0>        -0.1792
     13 C11        -0.3563   -9.5008   -1.9300 C.ar      1 <0>        -0.0512
     14 C12         0.2753  -10.6535   -1.5806 C.ar      1 <0>         0.0665
     15 C13         1.4804  -10.6654   -0.8860 C.ar      1 <0>        -0.0506
     16 C14         2.1073   -9.4879   -0.5094 C.ar      1 <0>        -0.0885
     17 C15         1.4729   -8.2128   -0.8582 C.ar      1 <0>         0.1403
     18 N3          1.7726   -6.9451   -0.6739 N.2       1 <0>        -0.2525
     19 C16         3.3819   -9.5168    0.2257 C.2       1 <0>         0.5647
     20 O1          3.9209   -8.4756    0.5498 O.2       1 <0>        -0.5200
     21 N4          3.9520  -10.6970    0.5398 N.am      1 <0>        -0.8478
     22 F1         -0.2897  -11.8325   -1.9210 F         1 <0>        -0.1310
     23 H1          1.0047    1.8421    0.0024 H         1 <0>         0.1246
     24 H2         -0.5450    1.8259   -0.8730 H         1 <0>         0.1244
     25 H3         -0.5280    1.8163    0.9069 H         1 <0>         0.1270
     26 H4          0.4901   -0.3383    0.8195 H         1 <0>         0.4304
     27 H5          0.1625   -0.1167   -2.0897 H         1 <0>         0.1402
     28 H6          1.7123   -0.1005   -1.2143 H         1 <0>         0.1404
     29 H7          2.5643   -2.1136   -0.1586 H         1 <0>         0.1443
     30 H8          2.6020   -4.5743   -0.1687 H         1 <0>         0.1562
     31 H9         -1.1115   -4.6131   -2.2889 H         1 <0>         0.1462
     32 H10        -1.1448   -2.1523   -2.2645 H         1 <0>         0.1449
     33 H11        -1.0654   -6.5924   -2.2987 H         1 <0>         0.1981
     34 H12        -1.2909   -9.5445   -2.4694 H         1 <0>         0.1495
     35 H13         1.9367  -11.6114   -0.6346 H         1 <0>         0.1535
     36 H14         3.5222  -11.5273    0.2813 H         1 <0>         0.4018
     37 H15         4.7921  -10.7161    1.0243 H         1 <0>         0.4116
     38 H16        -0.9445   -0.3533    0.0092 H         1 <0>         0.4295
@<TRIPOS>BOND
     1    1    2 1
     2    1   23 1
     3    1   24 1
     4    1   25 1
     5    2    3 1
     6    2   26 1
     7    2   38 1
     8    3    4 1
     9    3   27 1
    10    3   28 1
    11    4    9 ar
    12    4    5 ar
    13    5    6 ar
    14    5   29 1
    15    6    7 ar
    16    6   30 1
    17    7    8 ar
    18    7   10 1
    19    8    9 ar
    20    8   31 1
    21    9   32 1
    22   10   18 1
    23   10   11 1
    24   11   12 2
    25   11   33 1
    26   12   17 ar
    27   12   13 ar
    28   13   14 ar
    29   13   34 1
    30   14   15 ar
    31   14   22 1
    32   15   16 ar
    33   15   35 1
    34   16   17 ar
    35   16   19 1
    36   17   18 2
    37   19   20 2
    38   19   21 am
    39   21   36 1
    40   21   37 1
@<TRIPOS>MOLECULE
CHEMBL497592
   30    33     0     0     0
SMALL
USER_CHARGES

@<TRIPOS>ATOM
      1 C1         -0.0178    1.4608    0.0101 C.3       1 <0>         0.0925
      2 N1          0.0021   -0.0041    0.0020 N.pl3     1 <0>        -0.3739
      3 C2          0.0075   -0.7805   -1.1091 C.2       1 <0>         0.3569
      4 C3          0.0270   -2.1054   -0.6906 C.2       1 <0>        -0.2454
      5 C4          0.0366   -3.1734   -1.6328 C.2       1 <0>         0.0645
      6 C5          0.0275   -2.8691   -2.9500 C.2       1 <0>        -0.2322
      7 C6          0.0067   -1.5019   -3.3413 C.2       1 <0>         0.5680
      8 O1         -0.0016   -1.2297   -4.5304 O.2       1 <0>        -0.5231
      9 N2         -0.0017   -0.5032   -2.4495 N.am      1 <0>        -0.6009
     10 H1         -0.0157    0.4178   -2.7537 H         1 <0>         0.4192
     11 C7          0.0394   -4.0402   -3.9351 C.3       1 <0>         0.0056
     12 S1          0.5436   -5.4377   -2.8505 S.3       1 <0>        -0.2557
     13 C8          0.0571   -4.6562   -1.2579 C.3       1 <0>        -0.0422
     14 C9          0.0336   -2.0814    0.7764 C.2       1 <0>         0.2197
     15 N3          0.0244   -0.8176    1.1396 N.2       1 <0>        -0.2376
     16 C10         0.0532   -3.2536    1.6742 C.2       1 <0>        -0.1138
     17 C11         0.6665   -3.3992    2.8906 C.2       1 <0>        -0.1025
     18 C12         0.5445   -4.6005    3.5537 C.2       1 <0>        -0.1636
     19 C13        -0.1768   -5.6002    2.9846 C.2       1 <0>        -0.1609
     20 S2         -0.7227   -4.8474    1.4607 S.3       1 <0>         0.0923
     21 H2          1.0048    1.8381    0.0023 H         1 <0>         0.0857
     22 H3         -0.5450    1.8219   -0.8730 H         1 <0>         0.0896
     23 H4         -0.5280    1.8123    0.9069 H         1 <0>         0.1052
     24 H5         -0.9533   -4.2089   -4.3525 H         1 <0>         0.1092
     25 H6          0.7710   -3.8769   -4.7264 H         1 <0>         0.1188
     26 H7          0.7992   -4.8528   -0.4840 H         1 <0>         0.1279
     27 H8         -0.9308   -4.9930   -0.9436 H         1 <0>         0.1212
     28 H9          1.2349   -2.5880    3.3211 H         1 <0>         0.1409
     29 H10         1.0169   -4.7454    4.5141 H         1 <0>         0.1418
     30 H11        -0.3734   -6.5938    3.3594 H         1 <0>         0.1927
@<TRIPOS>BOND
     1    1    2 1
     2    1   21 1
     3    1   22 1
     4    1   23 1
     5    2   15 1
     6    2    3 1
     7    3    9 1
     8    3    4 2
     9    4    5 1
    10    4   14 1
    11    5   13 1
    12    5    6 2
    13    6    7 1
    14    6   11 1
    15    7    8 2
    16    7    9 am
    17    9   10 1
    18   11   12 1
    19   11   24 1
    20   11   25 1
    21   12   13 1
    22   13   26 1
    23   13   27 1
    24   14   15 2
    25   14   16 1
    26   16   20 1
    27   16   17 2
    28   17   18 1
    29   17   28 1
    30   18   19 2
    31   18   29 1
    32   19   20 1
    33   19   30 1
@<TRIPOS>MOLECULE
CHEMBL245558
   45    51     0     0     0
SMALL
USER_CHARGES

@<TRIPOS>ATOM
      1 C1         -0.0169    1.3927    0.0097 C.ar      1 <0>        -0.0553
      2 C2          1.1597    2.1069    0.0023 C.ar      1 <0>        -0.1413
      3 C3          2.3829    1.4424   -0.0135 C.ar      1 <0>         0.1557
      4 C4          2.4065    0.0379   -0.0217 C.ar      1 <0>        -0.1119
      5 C5          1.2151   -0.6819   -0.0130 C.ar      1 <0>        -0.0093
      6 C6          0.0021   -0.0041    0.0020 C.ar      1 <0>        -0.0641
      7 C7         -1.2727   -0.7637    0.0110 C.2       1 <0>         0.1082
      8 C8         -2.4728   -0.1038   -0.0816 C.2       1 <0>        -0.1845
      9 S1         -3.6129   -1.4802   -0.0222 S.3       1 <0>         0.1015
     10 C9         -2.3894   -2.7759    0.1180 C.2       1 <0>         0.1359
     11 N1         -1.2625   -2.0777    0.1025 N.2       1 <0>        -0.4540
     12 C10        -2.5819   -4.2320    0.2187 C.2       1 <0>         0.1566
     13 C11        -3.7773   -4.8877    0.2178 C.2       1 <0>        -0.2464
     14 C12        -3.5175   -6.2605    0.3306 C.2       1 <0>         0.0837
     15 N2         -2.2260   -6.4295    0.3968 N.2       1 <0>        -0.3005
     16 O1         -1.6084   -5.1575    0.3225 O.3       1 <0>        -0.0513
     17 C13         3.8254   -0.3554   -0.0392 C.ar      1 <0>        -0.0316
     18 C14         4.4870   -1.5831   -0.0545 C.ar      1 <0>        -0.0820
     19 C15         5.8936   -1.6128   -0.0690 C.ar      1 <0>        -0.1571
     20 C16         6.6218   -0.4248   -0.0678 C.ar      1 <0>         0.0105
     21 C17         5.9650    0.7902   -0.0528 C.ar      1 <0>        -0.1030
     22 C18         4.5707    0.8391   -0.0389 C.ar      1 <0>         0.1825
     23 N3          3.6887    1.9006   -0.0237 N.pl3     1 <0>        -0.6066
     24 H1          3.9474    2.8354   -0.0205 H         1 <0>         0.4244
     25 C19         6.9755    1.9184   -0.0549 C.3       1 <0>        -0.0797
     26 C20         8.3089    1.2675    0.3688 C.3       1 <0>        -0.1192
     27 C21         8.1193   -0.1960   -0.0818 C.3       1 <0>        -0.0874
     28 C22         6.2679   -3.0409   -0.0836 C.2       1 <0>         0.5821
     29 O2          7.4016   -3.4768   -0.0980 O.2       1 <0>        -0.4632
     30 N4          5.1429   -3.7785   -0.0776 N.am      1 <0>        -0.6810
     31 C23         4.0512   -2.9927   -0.0603 C.2       1 <0>         0.5748
     32 O3          2.8994   -3.3790   -0.0507 O.2       1 <0>        -0.4460
     33 H2         -0.9615    1.9159    0.0260 H         1 <0>         0.1363
     34 H3          1.1338    3.1866    0.0084 H         1 <0>         0.1346
     35 H4          1.2333   -1.7617   -0.0191 H         1 <0>         0.1538
     36 H5         -2.6730    0.9541   -0.1662 H         1 <0>         0.2103
     37 H6         -4.7527   -4.4300    0.1436 H         1 <0>         0.1689
     38 H7         -4.2600   -7.0444    0.3584 H         1 <0>         0.2094
     39 H8          7.0637    2.3453   -1.0539 H         1 <0>         0.0875
     40 H9          6.6855    2.6871    0.6614 H         1 <0>         0.0786
     41 H10         9.1480    1.7281   -0.1527 H         1 <0>         0.0854
     42 H11         8.4430    1.3263    1.4490 H         1 <0>         0.0784
     43 H12         8.6119   -0.8733    0.6159 H         1 <0>         0.0907
     44 H13         8.5139   -0.3360   -1.0882 H         1 <0>         0.0942
     45 H14         5.1217   -4.7482   -0.0850 H         1 <0>         0.4313
@<TRIPOS>BOND
     1    1    6 ar
     2    1    2 ar
     3    1   33 1
     4    2    3 ar
     5    2   34 1
     6    3   23 1
     7    3    4 ar
     8    4    5 ar
     9    4   17 1
    10    5    6 ar
    11    5   35 1
    12    6    7 1
    13    7   11 1
    14    7    8 2
    15    8    9 1
    16    8   36 1
    17    9   10 1
    18   10   11 2
    19   10   12 1
    20   12   16 1
    21   12   13 2
    22   13   14 1
    23   13   37 1
    24   14   15 2
    25   14   38 1
    26   15   16 1
    27   17   22 ar
    28   17   18 ar
    29   18   31 1
    30   18   19 ar
    31   19   20 ar
    32   19   28 1
    33   20   27 1
    34   20   21 ar
    35   21   22 ar
    36   21   25 1
    37   22   23 1
    38   23   24 1
    39   25   26 1
    40   25   39 1
    41   25   40 1
    42   26   27 1
    43   26   41 1
    44   26   42 1
    45   27   43 1
    46   27   44 1
    47   28   29 2
    48   28   30 am
    49   30   31 am
    50   30   45 1
    51   31   32 2
@<TRIPOS>MOLECULE
CHEMBL596722
   47    50     0     0     0
SMALL
USER_CHARGES

@<TRIPOS>ATOM
      1 C1         -0.0167    1.3779    0.0096 C.ar      1 <0>        -0.0832
      2 C2          1.1693    2.0932    0.0021 C.ar      1 <0>        -0.0737
      3 C3          2.3785    1.4318   -0.0134 C.ar      1 <0>        -0.0895
      4 C4          2.4208    0.0390   -0.0214 C.ar      1 <0>        -0.1077
      5 C5          1.2153   -0.6869   -0.0137 C.ar      1 <0>        -0.0599
      6 C6          0.0021   -0.0041    0.0020 C.ar      1 <0>        -0.0911
      7 C7          1.2370   -2.1661   -0.0217 C.2       1 <0>         0.5419
      8 O1          2.2982   -2.7582   -0.0349 O.2       1 <0>        -0.4926
      9 N1          0.0798   -2.8571   -0.0143 N.am      1 <0>        -0.8499
     10 C8          3.8350   -0.3830   -0.0377 C.2       1 <0>         0.5497
     11 O2          4.2158   -1.5372   -0.0480 O.2       1 <0>        -0.4386
     12 N2          4.6415    0.6926   -0.0399 N.am      1 <0>        -0.5642
     13 C9          3.8117    1.9026   -0.0252 C.3       1 <0>         0.1372
     14 C10         6.0394    0.6630   -0.0540 C.ar      1 <0>         0.2235
     15 C11         6.7607    1.8500   -0.0484 C.ar      1 <0>        -0.1618
     16 C12         8.1413    1.8173   -0.0619 C.ar      1 <0>        -0.0582
     17 C13         8.8056    0.6046   -0.0813 C.ar      1 <0>        -0.1974
     18 C14         8.0905   -0.5789   -0.0868 C.ar      1 <0>        -0.0568
     19 C15         6.7098   -0.5534   -0.0677 C.ar      1 <0>        -0.1579
     20 C16        10.3122    0.5728   -0.0969 C.3       1 <0>         0.0543
     21 N3         10.8158    0.5480    1.2829 N.4       1 <0>        -0.3933
     22 C17        10.4864   -0.7502    1.9250 C.3       1 <0>        -0.0060
     23 C18        11.5175   -0.8473    3.0774 C.3       1 <0>        -0.1455
     24 C19        12.7932   -0.2378    2.4522 C.3       1 <0>        -0.1450
     25 C20        12.2921    0.6377    1.2886 C.3       1 <0>        -0.0091
     26 H1         -0.9606    1.9025    0.0260 H         1 <0>         0.1484
     27 H2          1.1465    3.1729    0.0082 H         1 <0>         0.1437
     28 H3         -0.9265   -0.5555    0.0083 H         1 <0>         0.1429
     29 H4         -0.7672   -2.3845   -0.0037 H         1 <0>         0.4001
     30 H5          0.0940   -3.8269   -0.0195 H         1 <0>         0.4099
     31 H6          4.0028    2.4987   -0.9175 H         1 <0>         0.1092
     32 H7          4.0205    2.4891    0.8695 H         1 <0>         0.1086
     33 H8          6.2425    2.7975   -0.0340 H         1 <0>         0.1384
     34 H9          8.7028    2.7399   -0.0576 H         1 <0>         0.1355
     35 H10         8.6123   -1.5244   -0.1020 H         1 <0>         0.1341
     36 H11         6.1519   -1.4781   -0.0676 H         1 <0>         0.1651
     37 H12        10.6513   -0.3192   -0.6235 H         1 <0>         0.1331
     38 H13        10.6891    1.4603   -0.6053 H         1 <0>         0.1340
     39 H14         9.4699   -0.7379    2.3183 H         1 <0>         0.1334
     40 H15        10.6177   -1.5719    1.2210 H         1 <0>         0.1324
     41 H16        11.1916   -0.2617    3.9370 H         1 <0>         0.0966
     42 H17        11.6847   -1.8870    3.3587 H         1 <0>         0.1156
     43 H18        13.3194    0.3730    3.1858 H         1 <0>         0.1039
     44 H19        13.4454   -1.0270    2.0781 H         1 <0>         0.1032
     45 H20        12.6904    0.2648    0.3450 H         1 <0>         0.1305
     46 H21        12.6007    1.6717    1.4423 H         1 <0>         0.1311
     47 H22        10.4189    1.3098    1.8123 H         1 <0>         0.4250
@<TRIPOS>BOND
     1    1    6 ar
     2    1    2 ar
     3    1   26 1
     4    2    3 ar
     5    2   27 1
     6    3   13 1
     7    3    4 ar
     8    4    5 ar
     9    4   10 1
    10    5    6 ar
    11    5    7 1
    12    6   28 1
    13    7    8 2
    14    7    9 am
    15    9   29 1
    16    9   30 1
    17   10   11 2
    18   10   12 am
    19   12   13 1
    20   12   14 1
    21   13   31 1
    22   13   32 1
    23   14   19 ar
    24   14   15 ar
    25   15   16 ar
    26   15   33 1
    27   16   17 ar
    28   16   34 1
    29   17   18 ar
    30   17   20 1
    31   18   19 ar
    32   18   35 1
    33   19   36 1
    34   20   21 1
    35   20   37 1
    36   20   38 1
    37   21   25 1
    38   21   22 1
    39   21   47 1
    40   22   23 1
    41   22   39 1
    42   22   40 1
    43   23   24 1
    44   23   41 1
    45   23   42 1
    46   24   25 1
    47   24   43 1
    48   24   44 1
    49   25   45 1
    50   25   46 1
@<TRIPOS>MOLECULE
CHEMBL611980
   39    41     0     0     0
SMALL
USER_CHARGES

@<TRIPOS>ATOM
      1 C1         -0.0178    1.4608    0.0101 C.3       1 <0>         0.0936
      2 N1          0.0021   -0.0041    0.0020 N.pl3     1 <0>        -0.6402
      3 C2          0.0241   -0.7433    1.2666 C.3       1 <0>         0.0956
      4 C3         -0.0000   -0.6969   -1.2132 C.ar      1 <0>         0.1931
      5 C4          0.0131   -2.0858   -1.2208 C.ar      1 <0>        -0.1638
      6 C5          0.0111   -2.7695   -2.4202 C.ar      1 <0>        -0.1022
      7 C6         -0.0040   -2.0686   -3.6190 C.ar      1 <0>         0.1165
      8 C7         -0.0171   -0.6799   -3.6115 C.ar      1 <0>        -0.1074
      9 C8         -0.0209    0.0039   -2.4122 C.ar      1 <0>        -0.1700
     10 N2         -0.0056   -2.7622   -4.8356 N.am      1 <0>        -0.5541
     11 C9         -0.0149   -2.1502   -6.1692 C.3       1 <0>         0.1386
     12 C10        -0.0121   -3.2903   -7.1571 C.ar      1 <0>        -0.0888
     13 C11        -0.0181   -3.3438   -8.5349 C.ar      1 <0>        -0.0757
     14 C12        -0.0146   -4.5662   -9.1850 C.ar      1 <0>        -0.0930
     15 C13        -0.0044   -5.7427   -8.4590 C.ar      1 <0>        -0.0948
     16 C14         0.0018   -5.7056   -7.0676 C.ar      1 <0>        -0.0662
     17 C15        -0.0018   -4.4633   -6.4058 C.ar      1 <0>        -0.0982
     18 C16         0.0070   -4.0992   -4.9755 C.2       1 <0>         0.5424
     19 O1          0.0210   -4.8941   -4.0560 O.2       1 <0>        -0.4547
     20 C17         0.0117   -6.9636   -6.2894 C.2       1 <0>         0.5399
     21 O2          0.0172   -6.9267   -5.0746 O.2       1 <0>        -0.4849
     22 N3          0.0147   -8.1508   -6.9275 N.am      1 <0>        -0.8541
     23 H1          1.0048    1.8381    0.0023 H         1 <0>         0.0472
     24 H2         -0.5450    1.8219   -0.8730 H         1 <0>         0.0676
     25 H3         -0.5280    1.8123    0.9069 H         1 <0>         0.0660
     26 H4          0.0224   -0.0395    2.0990 H         1 <0>         0.0727
     27 H5         -0.8567   -1.3823    1.3294 H         1 <0>         0.0538
     28 H6          0.9230   -1.3581    1.3125 H         1 <0>         0.0540
     29 H7          0.0252   -2.6308   -0.2885 H         1 <0>         0.1264
     30 H8          0.0216   -3.8494   -2.4261 H         1 <0>         0.1542
     31 H9         -0.0285   -0.1349   -4.5439 H         1 <0>         0.1248
     32 H10        -0.0360    1.0838   -2.4063 H         1 <0>         0.1276
     33 H11        -0.9127   -1.5456   -6.2976 H         1 <0>         0.1040
     34 H12         0.8744   -1.5347   -6.3050 H         1 <0>         0.1038
     35 H13        -0.0261   -2.4291   -9.1089 H         1 <0>         0.1402
     36 H14        -0.0201   -4.6008  -10.2644 H         1 <0>         0.1432
     37 H15        -0.0016   -6.6928   -8.9726 H         1 <0>         0.1383
     38 H16         0.0104   -8.1802   -7.8970 H         1 <0>         0.3977
     39 H17         0.0212   -8.9757   -6.4172 H         1 <0>         0.4071
@<TRIPOS>BOND
     1    1    2 1
     2    1   23 1
     3    1   24 1
     4    1   25 1
     5    2    3 1
     6    2    4 1
     7    3   26 1
     8    3   27 1
     9    3   28 1
    10    4    9 ar
    11    4    5 ar
    12    5    6 ar
    13    5   29 1
    14    6    7 ar
    15    6   30 1
    16    7    8 ar
    17    7   10 1
    18    8    9 ar
    19    8   31 1
    20    9   32 1
    21   10   18 am
    22   10   11 1
    23   11   12 1
    24   11   33 1
    25   11   34 1
    26   12   17 ar
    27   12   13 ar
    28   13   14 ar
    29   13   35 1
    30   14   15 ar
    31   14   36 1
    32   15   16 ar
    33   15   37 1
    34   16   17 ar
    35   16   20 1
    36   17   18 1
    37   18   19 2
    38   20   21 2
    39   20   22 am
    40   22   38 1
    41   22   39 1
@<TRIPOS>MOLECULE
CHEMBL550041
   54    59     0     0     0
SMALL
USER_CHARGES

@<TRIPOS>ATOM
      1 C1          0.1368    1.3725   -1.8253 C.ar      1 <0>        -0.1576
      2 C2          1.3144    2.0923   -1.6806 C.ar      1 <0>        -0.0839
      3 C3          2.5051    1.4476   -1.4171 C.ar      1 <0>        -0.1499
      4 C4          2.5234    0.0648   -1.2958 C.ar      1 <0>         0.1971
      5 C5          1.3278   -0.6619   -1.4431 C.ar      1 <0>        -0.1606
      6 C6          0.1339    0.0101   -1.7094 C.ar      1 <0>        -0.0332
      7 C7          1.3796   -2.1230   -1.3098 C.2       1 <0>         0.4753
      8 O1          0.2558   -2.8655   -1.4436 O.3       1 <0>        -0.6474
      9 N1          2.5329   -2.6985   -1.0592 N.2       1 <0>        -0.6147
     10 C8          3.6701   -1.9910   -0.9205 C.2       1 <0>         0.3674
     11 N2          3.6923   -0.6272   -1.0326 N.pl3     1 <0>        -0.3538
     12 N3          5.0111   -0.1973   -0.8390 N.2       1 <0>        -0.3458
     13 C9          5.7720   -1.2512   -0.6166 C.2       1 <0>         0.1290
     14 C10         4.9694   -2.3970   -0.6593 C.2       1 <0>        -0.3285
     15 C11         7.2345   -1.2265   -0.3635 C.ar      1 <0>         0.0110
     16 C12         7.9260   -2.4180   -0.1480 C.ar      1 <0>        -0.0615
     17 C13         9.2867   -2.3979    0.0883 C.ar      1 <0>        -0.1185
     18 C14         9.9713   -1.1992    0.1126 C.ar      1 <0>        -0.0630
     19 C15         9.2902    0.0004   -0.1022 C.ar      1 <0>        -0.1535
     20 C16         7.9178   -0.0156   -0.3467 C.ar      1 <0>        -0.0784
     21 C17        10.0235    1.2841   -0.0761 C.2       1 <0>         0.5822
     22 O2         11.1551    1.3466   -0.5155 O.2       1 <0>        -0.5115
     23 N4          9.4372    2.3848    0.4348 N.am      1 <0>        -0.6267
     24 C18        10.0797    3.7087    0.3571 C.3       1 <0>         0.0914
     25 C19        10.1598    4.2666    1.7772 C.3       1 <0>        -0.0215
     26 N5          8.8238    4.3565    2.3841 N.4       1 <0>        -0.3884
     27 C20         9.0462    4.6945    3.8198 C.3       1 <0>        -0.0048
     28 C21         9.2022    3.3554    4.5679 C.3       1 <0>        -0.1445
     29 C22         8.9591    2.2629    3.4954 C.3       1 <0>        -0.1375
     30 C23         8.1653    3.0374    2.4263 C.3       1 <0>         0.0160
     31 H1          7.1399    3.1659    2.7730 H         1 <0>         0.1489
     32 C24         8.1240    2.3236    1.0908 C.3       1 <0>         0.0839
     33 H2         -0.7872    1.8940   -2.0270 H         1 <0>         0.1261
     34 H3          1.2986    3.1680   -1.7756 H         1 <0>         0.1248
     35 H4          3.4173    2.0150   -1.3062 H         1 <0>         0.1284
     36 H5         -0.7869   -0.5428   -1.8230 H         1 <0>         0.1414
     37 H6          5.3023   -3.4141   -0.5143 H         1 <0>         0.1445
     38 H7          7.3962   -3.3589   -0.1654 H         1 <0>         0.1421
     39 H8          9.8173   -3.3237    0.2549 H         1 <0>         0.1380
     40 H9         11.0351   -1.1895    0.2985 H         1 <0>         0.1319
     41 H10         7.3866    0.9091   -0.5176 H         1 <0>         0.1359
     42 H11        11.0825    3.6094   -0.0585 H         1 <0>         0.1355
     43 H12         9.4834    4.3731   -0.2683 H         1 <0>         0.0951
     44 H13        10.7855    3.6122    2.3841 H         1 <0>         0.1325
     45 H14        10.6067    5.2604    1.7467 H         1 <0>         0.1398
     46 H15         9.9527    5.2901    3.9271 H         1 <0>         0.1324
     47 H16         8.1897    5.2434    4.2112 H         1 <0>         0.1323
     48 H17        10.2082    3.2659    4.9779 H         1 <0>         0.1027
     49 H18         8.4604    3.2772    5.3626 H         1 <0>         0.1071
     50 H19         9.9029    1.8972    3.0909 H         1 <0>         0.0969
     51 H20         8.3673    1.4428    3.9019 H         1 <0>         0.1216
     52 H21         7.3802    2.7969    0.4498 H         1 <0>         0.1010
     53 H22         7.8497    1.2805    1.2482 H         1 <0>         0.1419
     54 H23         8.2501    5.0401    1.9134 H         1 <0>         0.4309
@<TRIPOS>BOND
     1    1    6 ar
     2    1    2 ar
     3    1   33 1
     4    2    3 ar
     5    2   34 1
     6    3    4 ar
     7    3   35 1
     8    4   11 1
     9    4    5 ar
    10    5    6 ar
    11    5    7 1
    12    6   36 1
    13    7    8 1
    14    7    9 2
    15    9   10 1
    16   10   14 2
    17   10   11 1
    18   11   12 1
    19   12   13 2
    20   13   14 1
    21   13   15 1
    22   14   37 1
    23   15   20 ar
    24   15   16 ar
    25   16   17 ar
    26   16   38 1
    27   17   18 ar
    28   17   39 1
    29   18   19 ar
    30   18   40 1
    31   19   20 ar
    32   19   21 1
    33   20   41 1
    34   21   22 2
    35   21   23 am
    36   23   32 1
    37   23   24 1
    38   24   25 1
    39   24   42 1
    40   24   43 1
    41   25   26 1
    42   25   44 1
    43   25   45 1
    44   26   30 1
    45   26   27 1
    46   26   54 1
    47   27   28 1
    48   27   46 1
    49   27   47 1
    50   28   29 1
    51   28   48 1
    52   28   49 1
    53   29   30 1
    54   29   50 1
    55   29   51 1
    56   30   31 1
    57   30   32 1
    58   32   52 1
    59   32   53 1
@<TRIPOS>MOLECULE
CHEMBL550041__1
   53    58     0     0     0
SMALL
USER_CHARGES

@<TRIPOS>ATOM
      1 C1          0.1480    1.3648   -1.8878 C.ar      1 <0>        -0.1607
      2 C2          1.3247    2.0852   -1.7387 C.ar      1 <0>        -0.0841
      3 C3          2.5137    1.4417   -1.4651 C.ar      1 <0>        -0.1468
      4 C4          2.5313    0.0594   -1.3381 C.ar      1 <0>         0.1998
      5 C5          1.3366   -0.6680   -1.4899 C.ar      1 <0>        -0.1631
      6 C6          0.1445    0.0028   -1.7665 C.ar      1 <0>        -0.0363
      7 C7          1.3876   -2.1286   -1.3504 C.2       1 <0>         0.4750
      8 O1          0.2647   -2.8717   -1.4883 O.3       1 <0>        -0.6587
      9 N1          2.5394   -2.7030   -1.0902 N.2       1 <0>        -0.6162
     10 C8          3.6757   -1.9948   -0.9472 C.2       1 <0>         0.3614
     11 N2          3.6986   -0.6314   -1.0647 N.pl3     1 <0>        -0.3551
     12 N3          5.0161   -0.2007   -0.8645 N.2       1 <0>        -0.3358
     13 C9          5.7755   -1.2537   -0.6331 C.2       1 <0>         0.1370
     14 C10         4.9733   -2.3997   -0.6762 C.2       1 <0>        -0.3286
     15 C11         7.2364   -1.2278   -0.3709 C.ar      1 <0>         0.0008
     16 C12         7.9267   -2.4184   -0.1462 C.ar      1 <0>        -0.0694
     17 C13         9.2859   -2.3973    0.0985 C.ar      1 <0>        -0.1256
     18 C14         9.9702   -1.1985    0.1223 C.ar      1 <0>        -0.0660
     19 C15         9.2904    0.0003   -0.1017 C.ar      1 <0>        -0.1399
     20 C16         7.9196   -0.0169   -0.3547 C.ar      1 <0>        -0.0681
     21 C17        10.0235    1.2841   -0.0761 C.2       1 <0>         0.5713
     22 O2         11.1549    1.3468   -0.5160 O.2       1 <0>        -0.5388
     23 N4          9.4372    2.3848    0.4348 N.am      1 <0>        -0.6091
     24 C18        10.0802    3.7083    0.3568 C.3       1 <0>         0.1132
     25 C19        10.1785    4.2588    1.7787 C.3       1 <0>         0.0240
     26 N5          8.8509    4.3317    2.4075 N.3       1 <0>        -0.4922
     27 C20         9.0649    4.6526    3.8487 C.3       1 <0>         0.0265
     28 C21         9.1899    3.3044    4.5860 C.3       1 <0>        -0.1502
     29 C22         8.9375    2.2261    3.5014 C.3       1 <0>        -0.1508
     30 C23         8.1677    3.0244    2.4324 C.3       1 <0>         0.0499
     31 H1          7.1437    3.1712    2.7757 H         1 <0>         0.0988
     32 C24         8.1242    2.3230    1.0906 C.3       1 <0>         0.1066
     33 H2         -0.7748    1.8854   -2.0974 H         1 <0>         0.1236
     34 H3          1.3094    3.1605   -1.8381 H         1 <0>         0.1250
     35 H4          3.4252    2.0096   -1.3507 H         1 <0>         0.1325
     36 H5         -0.7756   -0.5505   -1.8836 H         1 <0>         0.1387
     37 H6          5.3053   -3.4162   -0.5250 H         1 <0>         0.1435
     38 H7          7.3970   -3.3594   -0.1632 H         1 <0>         0.1370
     39 H8          9.8154   -3.3223    0.2723 H         1 <0>         0.1325
     40 H9         11.0328   -1.1879    0.3149 H         1 <0>         0.1289
     41 H10         7.3895    0.9071   -0.5327 H         1 <0>         0.1385
     42 H11        11.0777    3.6101   -0.0716 H         1 <0>         0.0980
     43 H12         9.4771    4.3767   -0.2577 H         1 <0>         0.0789
     44 H13        10.8202    3.6070    2.3714 H         1 <0>         0.0434
     45 H14        10.6149    5.2570    1.7468 H         1 <0>         0.0869
     46 H15         9.9806    5.2312    3.9704 H         1 <0>         0.0713
     47 H16         8.2143    5.2130    4.2368 H         1 <0>         0.0826
     48 H17        10.1902    3.1932    5.0046 H         1 <0>         0.0657
     49 H18         8.4394    3.2324    5.3732 H         1 <0>         0.0724
     50 H19         9.8783    1.8472    3.1024 H         1 <0>         0.0684
     51 H20         8.3273    1.4131    3.8950 H         1 <0>         0.0784
     52 H21         7.3821    2.8048    0.4540 H         1 <0>         0.0809
     53 H22         7.8458    1.2796    1.2386 H         1 <0>         0.1039
@<TRIPOS>BOND
     1    1    6 ar
     2    1    2 ar
     3    1   33 1
     4    2    3 ar
     5    2   34 1
     6    3    4 ar
     7    3   35 1
     8    4   11 1
     9    4    5 ar
    10    5    6 ar
    11    5    7 1
    12    6   36 1
    13    7    8 1
    14    7    9 2
    15    9   10 1
    16   10   14 2
    17   10   11 1
    18   11   12 1
    19   12   13 2
    20   13   14 1
    21   13   15 1
    22   14   37 1
    23   15   20 ar
    24   15   16 ar
    25   16   17 ar
    26   16   38 1
    27   17   18 ar
    28   17   39 1
    29   18   19 ar
    30   18   40 1
    31   19   20 ar
    32   19   21 1
    33   20   41 1
    34   21   22 2
    35   21   23 am
    36   23   32 1
    37   23   24 1
    38   24   25 1
    39   24   42 1
    40   24   43 1
    41   25   26 1
    42   25   44 1
    43   25   45 1
    44   26   30 1
    45   26   27 1
    46   27   28 1
    47   27   46 1
    48   27   47 1
    49   28   29 1
    50   28   48 1
    51   28   49 1
    52   29   30 1
    53   29   50 1
    54   29   51 1
    55   30   31 1
    56   30   32 1
    57   32   52 1
    58   32   53 1
@<TRIPOS>MOLECULE
CHEMBL589755
   37    39     0     0     0
SMALL
USER_CHARGES

@<TRIPOS>ATOM
      1 C1         -0.0413    1.1136    0.0482 C.ar      1 <0>        -0.0792
      2 C2          1.1131    1.8786    0.0607 C.ar      1 <0>        -0.0751
      3 C3          2.3494    1.2700    0.0212 C.ar      1 <0>        -0.0900
      4 C4          2.4506   -0.1185   -0.0317 C.ar      1 <0>        -0.1186
      5 C5          1.2773   -0.8949   -0.0444 C.ar      1 <0>        -0.0597
      6 C6          0.0362   -0.2654   -0.0040 C.ar      1 <0>        -0.0912
      7 C7          1.3619   -2.3709   -0.1008 C.2       1 <0>         0.5421
      8 O1          2.4473   -2.9165   -0.1363 O.2       1 <0>        -0.4971
      9 N1          0.2352   -3.1105   -0.1128 N.am      1 <0>        -0.8483
     10 C8          3.8819   -0.4792   -0.0651 C.2       1 <0>         0.5429
     11 O2          4.3114   -1.6151   -0.1132 O.2       1 <0>        -0.4671
     12 N2          4.6417    0.6294   -0.0347 N.am      1 <0>        -0.6414
     13 C9          3.7611    1.8017    0.0211 C.3       1 <0>         0.1398
     14 C10         6.1063    0.6616   -0.0540 C.3       1 <0>         0.1137
     15 C11         6.6330    0.7688    1.3785 C.3       1 <0>         0.0051
     16 C12         8.1737    0.6811    1.3792 C.3       1 <0>        -0.1346
     17 C13         8.4754   -0.1572    2.6493 C.3       1 <0>        -0.1413
     18 C14         7.2864   -1.1501    2.6585 C.3       1 <0>        -0.0101
     19 N3          6.1308   -0.3598    2.1834 N.4       1 <0>        -0.5175
     20 H1         -1.0066    1.5967    0.0838 H         1 <0>         0.1492
     21 H2          1.0445    2.9556    0.1013 H         1 <0>         0.1441
     22 H3         -0.8680   -0.8558   -0.0136 H         1 <0>         0.1434
     23 H4         -0.6311   -2.6750   -0.0845 H         1 <0>         0.4012
     24 H5          0.2907   -4.0782   -0.1498 H         1 <0>         0.4113
     25 H6          3.9232    2.4338   -0.8519 H         1 <0>         0.1091
     26 H7          3.9482    2.3676    0.9338 H         1 <0>         0.1019
     27 H8          6.4838   -0.2524   -0.5125 H         1 <0>         0.1156
     28 H9          6.4431    1.5232   -0.6305 H         1 <0>         0.1318
     29 H10         6.3126    1.7118    1.8215 H         1 <0>         0.1451
     30 H11         8.5310    0.1692    0.4857 H         1 <0>         0.1051
     31 H12         8.6162    1.6741    1.4588 H         1 <0>         0.1186
     32 H13         9.4241   -0.6850    2.5525 H         1 <0>         0.1207
     33 H14         8.4680    0.4691    3.5414 H         1 <0>         0.1005
     34 H15         7.4814   -1.9819    1.9816 H         1 <0>         0.1353
     35 H16         7.1058   -1.5165    3.6691 H         1 <0>         0.1380
     36 H17         5.6115   -0.0085    2.9740 H         1 <0>         0.4276
     37 H18         5.5319   -0.9412    1.6165 H         1 <0>         0.4293
@<TRIPOS>BOND
     1    1    6 ar
     2    1    2 ar
     3    1   20 1
     4    2    3 ar
     5    2   21 1
     6    3   13 1
     7    3    4 ar
     8    4    5 ar
     9    4   10 1
    10    5    6 ar
    11    5    7 1
    12    6   22 1
    13    7    8 2
    14    7    9 am
    15    9   23 1
    16    9   24 1
    17   10   11 2
    18   10   12 am
    19   12   13 1
    20   12   14 1
    21   13   25 1
    22   13   26 1
    23   14   15 1
    24   14   27 1
    25   14   28 1
    26   15   19 1
    27   15   16 1
    28   15   29 1
    29   16   17 1
    30   16   30 1
    31   16   31 1
    32   17   18 1
    33   17   32 1
    34   17   33 1
    35   18   19 1
    36   18   34 1
    37   18   35 1
    38   19   36 1
    39   19   37 1
@<TRIPOS>MOLECULE
CHEMBL589755__1
   37    39     0     0     0
SMALL
USER_CHARGES

@<TRIPOS>ATOM
      1 C1         -0.0167    1.3779    0.0096 C.ar      1 <0>        -0.0790
      2 C2          1.1693    2.0931    0.0021 C.ar      1 <0>        -0.0751
      3 C3          2.3786    1.4315   -0.0130 C.ar      1 <0>        -0.0895
      4 C4          2.4206    0.0389   -0.0209 C.ar      1 <0>        -0.1189
      5 C5          1.2153   -0.6868   -0.0133 C.ar      1 <0>        -0.0598
      6 C6          0.0021   -0.0041    0.0020 C.ar      1 <0>        -0.0915
      7 C7          1.2370   -2.1661   -0.0219 C.2       1 <0>         0.5425
      8 O1          2.2982   -2.7583   -0.0357 O.2       1 <0>        -0.4977
      9 N1          0.0798   -2.8571   -0.0146 N.am      1 <0>        -0.8483
     10 C8          3.8352   -0.3832   -0.0372 C.2       1 <0>         0.5450
     11 O2          4.2160   -1.5374   -0.0471 O.2       1 <0>        -0.4722
     12 N2          4.6417    0.6924   -0.0393 N.am      1 <0>        -0.6393
     13 C9          3.8117    1.9023   -0.0246 C.3       1 <0>         0.1396
     14 C10         6.1063    0.6616   -0.0540 C.3       1 <0>         0.1166
     15 C11         6.6019    0.6593   -1.5015 C.3       1 <0>         0.0069
     16 C12         8.1256    0.3845   -1.5494 C.3       1 <0>        -0.1358
     17 C13         8.2954   -0.1913   -2.9799 C.3       1 <0>        -0.1402
     18 C14         6.9980   -1.0012   -3.1850 C.3       1 <0>        -0.0108
     19 N3          5.9928   -0.4593   -2.2523 N.4       1 <0>        -0.5176
     20 H1         -0.9605    1.9026    0.0260 H         1 <0>         0.1492
     21 H2          1.1466    3.1728    0.0078 H         1 <0>         0.1441
     22 H3         -0.9265   -0.5555    0.0079 H         1 <0>         0.1432
     23 H4         -0.7672   -2.3845   -0.0036 H         1 <0>         0.4012
     24 H5          0.0940   -3.8270   -0.0203 H         1 <0>         0.4113
     25 H6          4.0028    2.4984   -0.9169 H         1 <0>         0.1030
     26 H7          4.0205    2.4888    0.8701 H         1 <0>         0.1089
     27 H8          6.4933    1.5407    0.4611 H         1 <0>         0.1333
     28 H9          6.4558   -0.2388    0.4512 H         1 <0>         0.1138
     29 H10         6.3706    1.6096   -1.9826 H         1 <0>         0.1465
     30 H11         8.6928    1.3077   -1.4302 H         1 <0>         0.1224
     31 H12         8.4140   -0.3490   -0.7965 H         1 <0>         0.1037
     32 H13         8.3680    0.6124   -3.7127 H         1 <0>         0.1015
     33 H14         9.1683   -0.8420   -3.0324 H         1 <0>         0.1161
     34 H15         6.6494   -0.8895   -4.2117 H         1 <0>         0.1337
     35 H16         7.1789   -2.0533   -2.9649 H         1 <0>         0.1335
     36 H17         5.7018   -1.1809   -1.6098 H         1 <0>         0.4334
     37 H18         5.1940   -0.1253   -2.7704 H         1 <0>         0.4263
@<TRIPOS>BOND
     1    1    6 ar
     2    1    2 ar
     3    1   20 1
     4    2    3 ar
     5    2   21 1
     6    3   13 1
     7    3    4 ar
     8    4    5 ar
     9    4   10 1
    10    5    6 ar
    11    5    7 1
    12    6   22 1
    13    7    8 2
    14    7    9 am
    15    9   23 1
    16    9   24 1
    17   10   11 2
    18   10   12 am
    19   12   13 1
    20   12   14 1
    21   13   25 1
    22   13   26 1
    23   14   15 1
    24   14   27 1
    25   14   28 1
    26   15   19 1
    27   15   16 1
    28   15   29 1
    29   16   17 1
    30   16   30 1
    31   16   31 1
    32   17   18 1
    33   17   32 1
    34   17   33 1
    35   18   19 1
    36   18   34 1
    37   18   35 1
    38   19   36 1
    39   19   37 1
@<TRIPOS>MOLECULE
CHEMBL479777
   39    42     0     0     0
SMALL
USER_CHARGES

@<TRIPOS>ATOM
      1 C1         -0.0167    1.3768    0.0096 C.ar      1 <0>        -0.1018
      2 C2          1.1719    2.0830    0.0021 C.ar      1 <0>        -0.1014
      3 C3          2.3756    1.4061   -0.0130 C.ar      1 <0>        -0.0906
      4 C4          2.3964    0.0213   -0.0206 C.ar      1 <0>        -0.1170
      5 C5          1.2082   -0.6847   -0.0132 C.ar      1 <0>        -0.1177
      6 C6          0.0021   -0.0041    0.0020 C.ar      1 <0>        -0.0906
      7 C7          1.4958   -2.1708   -0.0240 C.3       1 <0>        -0.0768
      8 C8          2.9656   -2.2944   -0.4788 C.3       1 <0>         0.1521
      9 C9          3.5639   -0.9420   -0.0368 C.3       1 <0>        -0.0774
     10 C10         3.6495   -3.4383    0.2246 C.2       1 <0>         0.2276
     11 N1          4.2096   -4.5103   -0.3943 N.pl3     1 <0>        -0.6045
     12 H1          4.2400   -4.6726   -1.3501 H         1 <0>         0.4184
     13 C11         4.7279   -5.3258    0.5933 C.ar      1 <0>         0.0623
     14 C12         5.4049   -6.5368    0.5866 C.ar      1 <0>        -0.0872
     15 C13         5.8037   -7.1157    1.7754 C.ar      1 <0>        -0.0844
     16 C14         5.5361   -6.4997    2.9841 C.ar      1 <0>        -0.0792
     17 C15         4.8586   -5.2837    3.0194 C.ar      1 <0>        -0.0721
     18 C16         4.4465   -4.6842    1.8106 C.ar      1 <0>         0.0937
     19 N2          3.7956   -3.5417    1.5151 N.2       1 <0>        -0.4036
     20 C17         4.5746   -4.6283    4.3088 C.2       1 <0>         0.5558
     21 O1          3.9826   -3.5663    4.3337 O.2       1 <0>        -0.5117
     22 N3          4.9709   -5.2060    5.4602 N.am      1 <0>        -0.8486
     23 N4          3.0496   -2.4510   -1.9370 N.4       1 <0>        -0.6317
     24 H2         -0.9588    1.9045    0.0259 H         1 <0>         0.1360
     25 H3          1.1591    3.1629    0.0076 H         1 <0>         0.1360
     26 H4          3.3036    1.9584   -0.0192 H         1 <0>         0.1303
     27 H5         -0.9268   -0.5550    0.0083 H         1 <0>         0.1301
     28 H6          1.3730   -2.5871    0.9758 H         1 <0>         0.1369
     29 H7          0.8377   -2.6782   -0.7293 H         1 <0>         0.1024
     30 H8          4.3178   -0.6106   -0.7508 H         1 <0>         0.1025
     31 H9          3.9973   -1.0278    0.9596 H         1 <0>         0.1394
     32 H10         5.6202   -7.0283   -0.3507 H         1 <0>         0.1381
     33 H11         6.3296   -8.0589    1.7608 H         1 <0>         0.1509
     34 H12         5.8538   -6.9645    3.9058 H         1 <0>         0.1457
     35 H13         5.4431   -6.0531    5.4403 H         1 <0>         0.4013
     36 H14         4.7840   -4.7747    6.3087 H         1 <0>         0.4113
     37 H15         2.6370   -1.6470   -2.3859 H         1 <0>         0.4521
     38 H16         4.0173   -2.5298   -2.2116 H         1 <0>         0.4367
     39 H17         2.5521   -3.2836   -2.2151 H         1 <0>         0.4370
@<TRIPOS>BOND
     1    1    6 ar
     2    1    2 ar
     3    1   24 1
     4    2    3 ar
     5    2   25 1
     6    3    4 ar
     7    3   26 1
     8    4    9 1
     9    4    5 ar
    10    5    6 ar
    11    5    7 1
    12    6   27 1
    13    7    8 1
    14    7   28 1
    15    7   29 1
    16    8    9 1
    17    8   10 1
    18    8   23 1
    19    9   30 1
    20    9   31 1
    21   10   19 2
    22   10   11 1
    23   11   12 1
    24   11   13 1
    25   13   18 ar
    26   13   14 ar
    27   14   15 ar
    28   14   32 1
    29   15   16 ar
    30   15   33 1
    31   16   17 ar
    32   16   34 1
    33   17   18 ar
    34   17   20 1
    35   18   19 1
    36   20   21 2
    37   20   22 am
    38   22   35 1
    39   22   36 1
    40   23   37 1
    41   23   38 1
    42   23   39 1
@<TRIPOS>MOLECULE
CHEMBL479777__1
   38    41     0     0     0
SMALL
USER_CHARGES

@<TRIPOS>ATOM
      1 C1         -0.0167    1.3768    0.0096 C.ar      1 <0>        -0.1196
      2 C2          1.1719    2.0830    0.0021 C.ar      1 <0>        -0.1185
      3 C3          2.3756    1.4061   -0.0130 C.ar      1 <0>        -0.1052
      4 C4          2.3964    0.0213   -0.0206 C.ar      1 <0>        -0.0814
      5 C5          1.2082   -0.6847   -0.0132 C.ar      1 <0>        -0.0849
      6 C6          0.0021   -0.0041    0.0020 C.ar      1 <0>        -0.1048
      7 C7          1.4958   -2.1708   -0.0240 C.3       1 <0>        -0.0606
      8 C8          2.9656   -2.2944   -0.4788 C.3       1 <0>         0.1971
      9 C9          3.5639   -0.9420   -0.0368 C.3       1 <0>        -0.0592
     10 C10         3.6495   -3.4383    0.2246 C.2       1 <0>         0.2625
     11 N1          4.2096   -4.5103   -0.3943 N.pl3     1 <0>        -0.5978
     12 H1          4.2400   -4.6726   -1.3501 H         1 <0>         0.4204
     13 C11         4.7279   -5.3258    0.5933 C.ar      1 <0>         0.0372
     14 C12         5.4049   -6.5368    0.5866 C.ar      1 <0>        -0.0796
     15 C13         5.8037   -7.1157    1.7754 C.ar      1 <0>        -0.1116
     16 C14         5.5361   -6.4997    2.9841 C.ar      1 <0>        -0.0860
     17 C15         4.8586   -5.2837    3.0194 C.ar      1 <0>        -0.0882
     18 C16         4.4465   -4.6842    1.8106 C.ar      1 <0>         0.1029
     19 N2          3.7956   -3.5417    1.5151 N.2       1 <0>        -0.4507
     20 C17         4.5746   -4.6283    4.3088 C.2       1 <0>         0.5566
     21 O1          3.9826   -3.5663    4.3337 O.2       1 <0>        -0.5091
     22 N3          4.9709   -5.2060    5.4602 N.am      1 <0>        -0.8551
     23 N4          3.0496   -2.4510   -1.9370 N.3       1 <0>        -0.8205
     24 H2         -0.9588    1.9045    0.0259 H         1 <0>         0.1237
     25 H3          1.1591    3.1629    0.0076 H         1 <0>         0.1237
     26 H4          3.3036    1.9584   -0.0192 H         1 <0>         0.1197
     27 H5         -0.9268   -0.5550    0.0083 H         1 <0>         0.1193
     28 H6          1.3730   -2.5871    0.9758 H         1 <0>         0.0989
     29 H7          0.8377   -2.6782   -0.7293 H         1 <0>         0.0826
     30 H8          4.3178   -0.6106   -0.7508 H         1 <0>         0.0834
     31 H9          3.9973   -1.0278    0.9596 H         1 <0>         0.1007
     32 H10         5.6202   -7.0283   -0.3507 H         1 <0>         0.1296
     33 H11         6.3296   -8.0589    1.7608 H         1 <0>         0.1404
     34 H12         5.8538   -6.9645    3.9058 H         1 <0>         0.1359
     35 H13         5.4431   -6.0531    5.4403 H         1 <0>         0.3984
     36 H14         4.7840   -4.7747    6.3087 H         1 <0>         0.4058
     37 H15         4.0094   -2.5321   -2.2373 H         1 <0>         0.3467
     38 H16         2.5055   -3.2419   -2.2477 H         1 <0>         0.3476
@<TRIPOS>BOND
     1    1    6 ar
     2    1    2 ar
     3    1   24 1
     4    2    3 ar
     5    2   25 1
     6    3    4 ar
     7    3   26 1
     8    4    9 1
     9    4    5 ar
    10    5    6 ar
    11    5    7 1
    12    6   27 1
    13    7    8 1
    14    7   28 1
    15    7   29 1
    16    8    9 1
    17    8   10 1
    18    8   23 1
    19    9   30 1
    20    9   31 1
    21   10   19 2
    22   10   11 1
    23   11   12 1
    24   11   13 1
    25   13   18 ar
    26   13   14 ar
    27   14   15 ar
    28   14   32 1
    29   15   16 ar
    30   15   33 1
    31   16   17 ar
    32   16   34 1
    33   17   18 ar
    34   17   20 1
    35   18   19 1
    36   20   21 2
    37   20   22 am
    38   22   35 1
    39   22   36 1
    40   23   37 1
    41   23   38 1
@<TRIPOS>MOLECULE
CHEMBL598093
   40    42     0     0     0
SMALL
USER_CHARGES

@<TRIPOS>ATOM
      1 C1         -0.0167    1.3779    0.0096 C.ar      1 <0>        -0.0878
      2 C2          1.1693    2.0931    0.0021 C.ar      1 <0>        -0.0768
      3 C3          2.3786    1.4315   -0.0130 C.ar      1 <0>        -0.0942
      4 C4          2.4206    0.0389   -0.0209 C.ar      1 <0>        -0.1080
      5 C5          1.2153   -0.6868   -0.0133 C.ar      1 <0>        -0.0651
      6 C6          0.0021   -0.0041    0.0020 C.ar      1 <0>        -0.0927
      7 C7          1.2370   -2.1661   -0.0219 C.2       1 <0>         0.5412
      8 O1          2.2982   -2.7583   -0.0357 O.2       1 <0>        -0.4918
      9 N1          0.0798   -2.8571   -0.0146 N.am      1 <0>        -0.8515
     10 C8          3.8352   -0.3832   -0.0372 C.2       1 <0>         0.5493
     11 O2          4.2160   -1.5374   -0.0471 O.2       1 <0>        -0.4605
     12 N2          4.6417    0.6924   -0.0393 N.am      1 <0>        -0.6253
     13 C9          3.8117    1.9023   -0.0246 C.3       1 <0>         0.1452
     14 C10         6.1063    0.6616   -0.0540 C.3       1 <0>         0.1471
     15 C11         6.6019    0.6593   -1.5015 C.3       1 <0>        -0.1324
     16 C12         6.1677   -0.6387   -2.1886 C.3       1 <0>        -0.1313
     17 C13         6.7347   -0.6662   -3.6109 C.3       1 <0>        -0.1459
     18 C14         8.2570   -0.5234   -3.5501 C.3       1 <0>        -0.0080
     19 N3          8.6075    0.7484   -2.9065 N.4       1 <0>        -0.5025
     20 C15         8.1291    0.7529   -1.5188 C.3       1 <0>        -0.0030
     21 H1         -0.9605    1.9026    0.0260 H         1 <0>         0.1457
     22 H2          1.1466    3.1728    0.0078 H         1 <0>         0.1403
     23 H3         -0.9265   -0.5555    0.0079 H         1 <0>         0.1404
     24 H4         -0.7672   -2.3845   -0.0036 H         1 <0>         0.3996
     25 H5          0.0940   -3.8270   -0.0203 H         1 <0>         0.4093
     26 H6          4.0028    2.4984   -0.9169 H         1 <0>         0.0945
     27 H7          4.0205    2.4888    0.8701 H         1 <0>         0.0999
     28 H8          6.4933    1.5407    0.4611 H         1 <0>         0.0947
     29 H9          6.4558   -0.2388    0.4512 H         1 <0>         0.0976
     30 H10         6.1789    1.5121   -2.0324 H         1 <0>         0.0977
     31 H11         6.5479   -1.4927   -1.6280 H         1 <0>         0.0885
     32 H12         5.0793   -0.6832   -2.2292 H         1 <0>         0.0914
     33 H13         6.4766   -1.6119   -4.0874 H         1 <0>         0.1127
     34 H14         6.3145    0.1587   -4.1863 H         1 <0>         0.0855
     35 H15         8.6762   -1.3488   -2.9747 H         1 <0>         0.1316
     36 H16         8.6640   -0.5428   -4.5611 H         1 <0>         0.1335
     37 H17         9.6098    0.8641   -2.9161 H         1 <0>         0.4330
     38 H18         8.4416    1.6758   -1.0302 H         1 <0>         0.1359
     39 H19         8.5510   -0.0997   -0.9868 H         1 <0>         0.1346
     40 H20         8.1783    1.5092   -3.4116 H         1 <0>         0.4273
@<TRIPOS>BOND
     1    1    6 ar
     2    1    2 ar
     3    1   21 1
     4    2    3 ar
     5    2   22 1
     6    3   13 1
     7    3    4 ar
     8    4    5 ar
     9    4   10 1
    10    5    6 ar
    11    5    7 1
    12    6   23 1
    13    7    8 2
    14    7    9 am
    15    9   24 1
    16    9   25 1
    17   10   11 2
    18   10   12 am
    19   12   13 1
    20   12   14 1
    21   13   26 1
    22   13   27 1
    23   14   15 1
    24   14   28 1
    25   14   29 1
    26   15   20 1
    27   15   16 1
    28   15   30 1
    29   16   17 1
    30   16   31 1
    31   16   32 1
    32   17   18 1
    33   17   33 1
    34   17   34 1
    35   18   19 1
    36   18   35 1
    37   18   36 1
    38   19   20 1
    39   19   37 1
    40   19   40 1
    41   20   38 1
    42   20   39 1
@<TRIPOS>MOLECULE
CHEMBL598093__1
   40    42     0     0     0
SMALL
USER_CHARGES

@<TRIPOS>ATOM
      1 C1         -0.0167    1.3779    0.0096 C.ar      1 <0>        -0.0877
      2 C2          1.1693    2.0931    0.0021 C.ar      1 <0>        -0.0767
      3 C3          2.3786    1.4315   -0.0130 C.ar      1 <0>        -0.0948
      4 C4          2.4206    0.0389   -0.0209 C.ar      1 <0>        -0.1066
      5 C5          1.2153   -0.6868   -0.0133 C.ar      1 <0>        -0.0648
      6 C6          0.0021   -0.0041    0.0020 C.ar      1 <0>        -0.0922
      7 C7          1.2370   -2.1661   -0.0219 C.2       1 <0>         0.5410
      8 O1          2.2982   -2.7583   -0.0357 O.2       1 <0>        -0.4920
      9 N1          0.0798   -2.8571   -0.0146 N.am      1 <0>        -0.8513
     10 C8          3.8352   -0.3832   -0.0372 C.2       1 <0>         0.5493
     11 O2          4.2160   -1.5374   -0.0471 O.2       1 <0>        -0.4632
     12 N2          4.6417    0.6924   -0.0393 N.am      1 <0>        -0.6243
     13 C9          3.8117    1.9023   -0.0246 C.3       1 <0>         0.1422
     14 C10         6.1063    0.6616   -0.0540 C.3       1 <0>         0.1482
     15 C11         6.6019    0.6593   -1.5015 C.3       1 <0>        -0.1350
     16 C12         6.2229    1.9819   -2.1739 C.3       1 <0>        -0.1369
     17 C13         6.7909    2.0014   -3.5960 C.3       1 <0>        -0.1471
     18 C14         8.3058    1.7940   -3.5371 C.3       1 <0>        -0.0077
     19 N3          8.6023    0.5014   -2.9079 N.4       1 <0>        -0.5039
     20 C15         8.1238    0.5016   -1.5203 C.3       1 <0>        -0.0025
     21 H1         -0.9605    1.9026    0.0260 H         1 <0>         0.1458
     22 H2          1.1466    3.1728    0.0078 H         1 <0>         0.1404
     23 H3         -0.9265   -0.5555    0.0079 H         1 <0>         0.1405
     24 H4         -0.7672   -2.3845   -0.0036 H         1 <0>         0.3997
     25 H5          0.0940   -3.8270   -0.0203 H         1 <0>         0.4094
     26 H6          4.0028    2.4984   -0.9169 H         1 <0>         0.0961
     27 H7          4.0205    2.4888    0.8701 H         1 <0>         0.1001
     28 H8          6.4933    1.5407    0.4611 H         1 <0>         0.0947
     29 H9          6.4558   -0.2388    0.4512 H         1 <0>         0.0979
     30 H10         6.1434   -0.1690   -2.0418 H         1 <0>         0.1013
     31 H11         5.1374    2.0726   -2.2137 H         1 <0>         0.0945
     32 H12         6.6386    2.8128   -1.6039 H         1 <0>         0.0854
     33 H13         6.3364    1.2015   -4.1804 H         1 <0>         0.0878
     34 H14         6.5729    2.9624   -4.0618 H         1 <0>         0.1135
     35 H15         8.7135    1.8075   -4.5479 H         1 <0>         0.1335
     36 H16         8.7593    2.5946   -2.9527 H         1 <0>         0.1312
     37 H17         8.1416   -0.2350   -3.4214 H         1 <0>         0.4293
     38 H18         8.5811    1.3297   -0.9788 H         1 <0>         0.1344
     39 H19         8.3971   -0.4391   -1.0421 H         1 <0>         0.1371
     40 H20         9.5988    0.3438   -2.9190 H         1 <0>         0.4336
@<TRIPOS>BOND
     1    1    6 ar
     2    1    2 ar
     3    1   21 1
     4    2    3 ar
     5    2   22 1
     6    3   13 1
     7    3    4 ar
     8    4    5 ar
     9    4   10 1
    10    5    6 ar
    11    5    7 1
    12    6   23 1
    13    7    8 2
    14    7    9 am
    15    9   24 1
    16    9   25 1
    17   10   11 2
    18   10   12 am
    19   12   13 1
    20   12   14 1
    21   13   26 1
    22   13   27 1
    23   14   15 1
    24   14   28 1
    25   14   29 1
    26   15   20 1
    27   15   16 1
    28   15   30 1
    29   16   17 1
    30   16   31 1
    31   16   32 1
    32   17   18 1
    33   17   33 1
    34   17   34 1
    35   18   19 1
    36   18   35 1
    37   18   36 1
    38   19   20 1
    39   19   37 1
    40   19   40 1
    41   20   38 1
    42   20   39 1
@<TRIPOS>MOLECULE
CHEMBL446861
   26    28     0     0     0
SMALL
USER_CHARGES

@<TRIPOS>ATOM
      1 C1         -0.0184    1.5028    0.0103 C.3       1 <0>        -0.0854
      2 C2          0.0021   -0.0041    0.0020 C.2       1 <0>         0.1404
      3 C3          0.0081   -0.8294   -1.1473 C.2       1 <0>        -0.2565
      4 C4         -0.0030   -0.5256   -2.5432 C.2       1 <0>         0.0670
      5 C5          0.0076   -1.5484   -3.4246 C.2       1 <0>        -0.2380
      6 C6          0.0286   -2.8837   -2.9328 C.2       1 <0>         0.5686
      7 O1          0.0390   -3.8055   -3.7317 O.2       1 <0>        -0.5261
      8 N1          0.0379   -3.1628   -1.6234 N.am      1 <0>        -0.6037
      9 H1          0.0520   -4.0856   -1.3248 H         1 <0>         0.4175
     10 C7          0.0282   -2.1479   -0.7060 C.2       1 <0>         0.3510
     11 N2          0.0337   -2.1153    0.6441 N.pl3     1 <0>        -0.3744
     12 N3          0.0230   -0.7759    1.0525 N.2       1 <0>        -0.2664
     13 C8          0.0534   -3.2819    1.5301 C.3       1 <0>         0.0936
     14 C9         -0.0047   -1.1866   -4.9117 C.3       1 <0>         0.0074
     15 S1         -0.5125    0.5808   -4.8633 S.3       1 <0>        -0.2624
     16 C10        -0.0266    0.8924   -3.1166 C.3       1 <0>        -0.0406
     17 H2          1.0042    1.8801    0.0026 H         1 <0>         0.0902
     18 H3         -0.5455    1.8639   -0.8728 H         1 <0>         0.0855
     19 H4         -0.5286    1.8543    0.9071 H         1 <0>         0.0856
     20 H5          1.0858   -3.5573    1.7453 H         1 <0>         0.0840
     21 H6         -0.4597   -3.0400    2.4608 H         1 <0>         0.1039
     22 H7         -0.4513   -4.1164    1.0432 H         1 <0>         0.0873
     23 H8          0.9883   -1.2954   -5.3479 H         1 <0>         0.1077
     24 H9         -0.7351   -1.7876   -5.4534 H         1 <0>         0.1171
     25 H10        -0.7700    1.5065   -2.6083 H         1 <0>         0.1256
     26 H11         0.9603    1.3519   -3.0620 H         1 <0>         0.1211
@<TRIPOS>BOND
     1    1    2 1
     2    1   17 1
     3    1   18 1
     4    1   19 1
     5    2   12 2
     6    2    3 1
     7    3   10 2
     8    3    4 1
     9    4   16 1
    10    4    5 2
    11    5    6 1
    12    5   14 1
    13    6    7 2
    14    6    8 am
    15    8    9 1
    16    8   10 1
    17   10   11 1
    18   11   12 1
    19   11   13 1
    20   13   20 1
    21   13   21 1
    22   13   22 1
    23   14   15 1
    24   14   23 1
    25   14   24 1
    26   15   16 1
    27   16   25 1
    28   16   26 1
@<TRIPOS>MOLECULE
CHEMBL605575
   66    68     0     0     0
SMALL
USER_CHARGES

@<TRIPOS>ATOM
      1 C1         -1.4192   -3.4463   -0.5513 C.3       1 <0>        -0.1254
      2 C2         -1.6451   -4.2932    0.6745 C.2       1 <0>        -0.0460
      3 C3         -2.2464   -5.5161    0.5797 C.2       1 <0>        -0.1520
      4 C4         -2.4261   -6.2555    1.7687 C.2       1 <0>         0.4821
      5 O1         -2.9577   -7.3539    1.7375 O.2       1 <0>        -0.5241
      6 N1         -2.0045   -5.7365    2.9377 N.am      1 <0>        -0.4490
      7 H1         -2.1289   -6.2462    3.7535 H         1 <0>         0.4407
      8 N2         -1.4416   -4.5843    2.9994 N.2       1 <0>        -0.2133
      9 C5         -1.2375   -3.8477    1.9428 C.2       1 <0>         0.0664
     10 C6         -0.5649   -2.5066    2.0841 C.3       1 <0>        -0.0122
     11 C7         -0.2284   -2.2636    3.5329 C.ar      1 <0>        -0.0822
     12 C8         -1.1467   -1.6378    4.3589 C.ar      1 <0>        -0.0468
     13 C9         -0.8478   -1.4103    5.6889 C.ar      1 <0>        -0.1492
     14 C10         0.3729   -1.8078    6.2038 C.ar      1 <0>         0.1492
     15 C11         1.3037   -2.4405    5.3741 C.ar      1 <0>        -0.1733
     16 C12         0.9903   -2.6702    4.0326 C.ar      1 <0>        -0.0503
     17 C13         2.6099   -2.8681    5.9148 C.2       1 <0>         0.5742
     18 O2          2.6569   -3.5726    6.9045 O.2       1 <0>        -0.5049
     19 N3          3.7497   -2.4773    5.3111 N.am      1 <0>        -0.6132
     20 C14         3.7156   -1.5187    4.1976 C.3       1 <0>         0.0885
     21 C15         4.6301   -0.3362    4.5408 C.3       1 <0>         0.0940
     22 N4          5.9293   -0.8605    4.9845 N.am      1 <0>        -0.6086
     23 C16         5.9634   -1.8192    6.0979 C.3       1 <0>         0.0605
     24 C17         5.0494   -2.9974    5.7584 C.3       1 <0>         0.0904
     25 C18         7.0691   -0.4697    4.3808 C.2       1 <0>         0.5054
     26 O3          7.0412    0.4038    3.5398 O.2       1 <0>        -0.4753
     27 C19         8.3783   -1.1180    4.7506 C.3       1 <0>         0.0378
     28 C20         9.4875   -0.5810    3.8438 C.3       1 <0>        -0.1627
     29 C21         8.7120   -0.7977    6.2090 C.3       1 <0>        -0.1920
     30 N5          8.2691   -2.5731    4.5815 N.4       1 <0>        -0.3914
     31 C22         8.1000   -2.8892    3.1569 C.3       1 <0>        -0.0579
     32 C23         9.4897   -3.2175    5.0844 C.3       1 <0>        -0.0615
     33 F1          0.6651   -1.5849    7.5038 F         1 <0>        -0.1243
     34 C24        -2.7032   -6.0578   -0.7503 C.3       1 <0>        -0.1024
     35 H2         -0.4486   -3.6866   -0.9852 H         1 <0>         0.0872
     36 H3         -2.2033   -3.6473   -1.2814 H         1 <0>         0.0844
     37 H4         -1.4424   -2.3924   -0.2741 H         1 <0>         0.0808
     38 H5          0.3500   -2.4947    1.4917 H         1 <0>         0.1023
     39 H6         -1.2366   -1.7242    1.7309 H         1 <0>         0.1072
     40 H7         -2.1012   -1.3255    3.9617 H         1 <0>         0.1409
     41 H8         -1.5686   -0.9210    6.3273 H         1 <0>         0.1473
     42 H9          1.7030   -3.1617    3.3870 H         1 <0>         0.1339
     43 H10         4.0696   -2.0026    3.2873 H         1 <0>         0.0814
     44 H11         2.6958   -1.1624    4.0527 H         1 <0>         0.1156
     45 H12         4.7694    0.2870    3.6574 H         1 <0>         0.1184
     46 H13         4.1812    0.2534    5.3403 H         1 <0>         0.0906
     47 H14         6.9833   -2.1754    6.2429 H         1 <0>         0.0865
     48 H15         5.6095   -1.3352    7.0082 H         1 <0>         0.1124
     49 H16         4.9102   -3.6174    6.6440 H         1 <0>         0.1240
     50 H17         5.5005   -3.5890    4.9618 H         1 <0>         0.0679
     51 H18         9.5685    0.4988    3.9693 H         1 <0>         0.1139
     52 H19        10.4344   -1.0499    4.1113 H         1 <0>         0.0928
     53 H20         9.2497   -0.8091    2.8048 H         1 <0>         0.0914
     54 H21         7.9691   -1.2570    6.8610 H         1 <0>         0.0923
     55 H22         9.6997   -1.1903    6.4504 H         1 <0>         0.1039
     56 H23         8.7049    0.2825    6.3545 H         1 <0>         0.1149
     57 H24         7.2480   -2.3367    2.7608 H         1 <0>         0.1187
     58 H25         9.0011   -2.6067    2.6125 H         1 <0>         0.1346
     59 H26         7.9254   -3.9588    3.0402 H         1 <0>         0.1326
     60 H27         9.6152   -2.9830    6.1415 H         1 <0>         0.1300
     61 H28         9.4087   -4.2972    4.9589 H         1 <0>         0.1330
     62 H29        10.3509   -2.8504    4.5261 H         1 <0>         0.1317
     63 H30        -1.8951   -6.6294   -1.2068 H         1 <0>         0.0801
     64 H31        -3.5672   -6.7055   -0.6014 H         1 <0>         0.0806
     65 H32        -2.9778   -5.2305   -1.4047 H         1 <0>         0.0801
     66 H33         7.4720   -2.9129    5.0983 H         1 <0>         0.4174
@<TRIPOS>BOND
     1    1    2 1
     2    1   35 1
     3    1   36 1
     4    1   37 1
     5    2    9 1
     6    2    3 2
     7    3    4 1
     8    3   34 1
     9    4    5 2
    10    4    6 am
    11    6    7 1
    12    6    8 1
    13    8    9 2
    14    9   10 1
    15   10   11 1
    16   10   38 1
    17   10   39 1
    18   11   16 ar
    19   11   12 ar
    20   12   13 ar
    21   12   40 1
    22   13   14 ar
    23   13   41 1
    24   14   15 ar
    25   14   33 1
    26   15   16 ar
    27   15   17 1
    28   16   42 1
    29   17   18 2
    30   17   19 am
    31   19   24 1
    32   19   20 1
    33   20   21 1
    34   20   43 1
    35   20   44 1
    36   21   22 1
    37   21   45 1
    38   21   46 1
    39   22   23 1
    40   22   25 am
    41   23   24 1
    42   23   47 1
    43   23   48 1
    44   24   49 1
    45   24   50 1
    46   25   26 2
    47   25   27 1
    48   27   28 1
    49   27   29 1
    50   27   30 1
    51   28   51 1
    52   28   52 1
    53   28   53 1
    54   29   54 1
    55   29   55 1
    56   29   56 1
    57   30   31 1
    58   30   32 1
    59   30   66 1
    60   31   57 1
    61   31   58 1
    62   31   59 1
    63   32   60 1
    64   32   61 1
    65   32   62 1
    66   34   63 1
    67   34   64 1
    68   34   65 1
@<TRIPOS>MOLECULE
CHEMBL605575__1
   65    67     0     0     0
SMALL
USER_CHARGES

@<TRIPOS>ATOM
      1 C1         -2.9569   -3.0609   -0.3526 C.3       1 <0>        -0.1076
      2 C2         -3.0552   -1.7675   -1.1196 C.ar      1 <0>        -0.0676
      3 C3         -3.8418   -1.6702   -2.2576 C.ar      1 <0>        -0.1998
      4 C4         -3.8861   -0.4446   -2.9167 C.ar      1 <0>         0.3660
      5 O1         -4.6417   -0.2991   -4.0344 O.3       1 <0>        -0.6925
      6 N1         -3.1885    0.5781   -2.4483 N.ar      1 <0>        -0.3573
      7 N2         -2.4620    0.4825   -1.3945 N.ar      1 <0>        -0.2001
      8 C5         -2.3661   -0.6372   -0.7051 C.ar      1 <0>        -0.0749
      9 C6         -1.5030   -0.6909    0.5291 C.3       1 <0>        -0.0032
     10 C7         -2.3510   -0.4280    1.7469 C.ar      1 <0>        -0.0674
     11 C8         -2.6198    0.8744    2.1325 C.ar      1 <0>        -0.0468
     12 C9         -3.3964    1.1261    3.2476 C.ar      1 <0>        -0.1511
     13 C10        -3.9111    0.0760    3.9864 C.ar      1 <0>         0.1352
     14 C11        -3.6431   -1.2411    3.6012 C.ar      1 <0>        -0.1799
     15 C12        -2.8612   -1.4850    2.4699 C.ar      1 <0>        -0.0665
     16 C13        -4.1879   -2.3688    4.3840 C.2       1 <0>         0.5789
     17 O2         -5.3788   -2.4242    4.6222 O.2       1 <0>        -0.5088
     18 N3         -3.3649   -3.3365    4.8343 N.am      1 <0>        -0.6138
     19 C14        -1.9102   -3.2227    4.6588 C.3       1 <0>         0.0867
     20 C15        -1.2392   -3.3537    6.0317 C.3       1 <0>         0.0946
     21 N4         -1.7803   -4.5413    6.7075 N.am      1 <0>        -0.6062
     22 C16        -3.2350   -4.6551    6.8830 C.3       1 <0>         0.0605
     23 C17        -3.9056   -4.5214    5.5150 C.3       1 <0>         0.0906
     24 C18        -0.9573   -5.5089    7.1578 C.2       1 <0>         0.5040
     25 O3          0.2445   -5.3535    7.1100 O.2       1 <0>        -0.4780
     26 C19        -1.5305   -6.7840    7.7206 C.3       1 <0>         0.0375
     27 C20        -0.3922   -7.7477    8.0621 C.3       1 <0>        -0.1616
     28 C21        -2.3291   -6.4688    8.9870 C.3       1 <0>        -0.1923
     29 N5         -2.4152   -7.4043    6.7254 N.4       1 <0>        -0.3910
     30 C22        -1.6214   -7.8411    5.5691 C.3       1 <0>        -0.0581
     31 C23        -3.0879   -8.5649    7.3241 C.3       1 <0>        -0.0606
     32 F1         -4.6698    0.3222    5.0768 F         1 <0>        -0.1308
     33 C24        -4.6238   -2.8542   -2.7652 C.3       1 <0>        -0.0806
     34 H1         -3.6815   -3.0565    0.4616 H         1 <0>         0.0600
     35 H2         -3.1662   -3.8963   -1.0207 H         1 <0>         0.0648
     36 H3         -1.9518   -3.1655    0.0560 H         1 <0>         0.0605
     37 H4         -1.0463   -1.6772    0.6105 H         1 <0>         0.0765
     38 H5         -0.7222    0.0665    0.4597 H         1 <0>         0.0877
     39 H6         -2.2203    1.6977    1.5590 H         1 <0>         0.1472
     40 H7         -3.6014    2.1445    3.5430 H         1 <0>         0.1444
     41 H8         -2.6533   -2.4999    2.1645 H         1 <0>         0.1355
     42 H9         -1.5577   -4.0179    4.0019 H         1 <0>         0.0817
     43 H10        -1.6689   -2.2524    4.2248 H         1 <0>         0.1194
     44 H11        -0.1625   -3.4646    5.9035 H         1 <0>         0.1177
     45 H12        -1.4496   -2.4658    6.6280 H         1 <0>         0.0907
     46 H13        -3.4763   -5.6254    7.3170 H         1 <0>         0.0850
     47 H14        -3.5876   -3.8599    7.5398 H         1 <0>         0.1114
     48 H15        -4.9818   -4.4086    5.6464 H         1 <0>         0.1230
     49 H16        -3.6984   -5.4112    4.9205 H         1 <0>         0.0666
     50 H17         0.2643   -7.2874    8.8005 H         1 <0>         0.1127
     51 H18        -0.8068   -8.6699    8.4692 H         1 <0>         0.0912
     52 H19         0.1767   -7.9722    7.1599 H         1 <0>         0.0915
     53 H20        -3.1927   -5.8559    8.7288 H         1 <0>         0.0938
     54 H21        -2.6672   -7.3987    9.4442 H         1 <0>         0.1022
     55 H22        -1.6964   -5.9272    9.6902 H         1 <0>         0.1139
     56 H23        -0.9397   -8.6345    5.8752 H         1 <0>         0.1334
     57 H24        -2.2875   -8.2144    4.7913 H         1 <0>         0.1333
     58 H25        -1.0481   -6.9983    5.1828 H         1 <0>         0.1203
     59 H26        -3.6769   -8.2409    8.1821 H         1 <0>         0.1290
     60 H27        -3.7444   -9.0252    6.5857 H         1 <0>         0.1326
     61 H28        -2.3415   -9.2899    7.6487 H         1 <0>         0.1303
     62 H29        -5.6139   -2.8581   -2.3094 H         1 <0>         0.0521
     63 H30        -4.7228   -2.7868   -3.8486 H         1 <0>         0.0675
     64 H31        -4.1003   -3.7741   -2.5047 H         1 <0>         0.0476
     65 H32        -3.1062   -6.7332    6.4249 H         1 <0>         0.4189
@<TRIPOS>BOND
     1    1    2 1
     2    1   34 1
     3    1   35 1
     4    1   36 1
     5    2    8 ar
     6    2    3 ar
     7    3    4 ar
     8    3   33 1
     9    4    5 1
    10    4    6 ar
    11    6    7 ar
    12    7    8 ar
    13    8    9 1
    14    9   10 1
    15    9   37 1
    16    9   38 1
    17   10   15 ar
    18   10   11 ar
    19   11   12 ar
    20   11   39 1
    21   12   13 ar
    22   12   40 1
    23   13   14 ar
    24   13   32 1
    25   14   15 ar
    26   14   16 1
    27   15   41 1
    28   16   17 2
    29   16   18 am
    30   18   23 1
    31   18   19 1
    32   19   20 1
    33   19   42 1
    34   19   43 1
    35   20   21 1
    36   20   44 1
    37   20   45 1
    38   21   22 1
    39   21   24 am
    40   22   23 1
    41   22   46 1
    42   22   47 1
    43   23   48 1
    44   23   49 1
    45   24   25 2
    46   24   26 1
    47   26   27 1
    48   26   28 1
    49   26   29 1
    50   27   50 1
    51   27   51 1
    52   27   52 1
    53   28   53 1
    54   28   54 1
    55   28   55 1
    56   29   30 1
    57   29   31 1
    58   29   65 1
    59   30   56 1
    60   30   57 1
    61   30   58 1
    62   31   59 1
    63   31   60 1
    64   31   61 1
    65   33   62 1
    66   33   63 1
    67   33   64 1
@<TRIPOS>MOLECULE
CHEMBL599803
   61    64     0     0     0
SMALL
USER_CHARGES

@<TRIPOS>ATOM
      1 C1         -2.0342   -0.5658    4.9989 C.3       1 <0>        -0.1273
      2 C2         -1.1694   -0.9923    3.8407 C.2       1 <0>        -0.0449
      3 C3         -1.0856   -0.2291    2.7110 C.2       1 <0>        -0.1516
      4 C4         -0.2564   -0.6894    1.6653 C.2       1 <0>         0.4827
      5 O1         -0.1471   -0.0438    0.6352 O.2       1 <0>        -0.5248
      6 N1          0.4130   -1.8481    1.8165 N.am      1 <0>        -0.4510
      7 H1          0.9822   -2.1626    1.0967 H         1 <0>         0.4391
      8 N2          0.3172   -2.5467    2.8893 N.2       1 <0>        -0.2186
      9 C5         -0.4246   -2.1819    3.8980 C.2       1 <0>         0.0731
     10 C6         -0.4876   -3.0455    5.1314 C.3       1 <0>        -0.0148
     11 C7          0.3933   -4.2538    4.9441 C.ar      1 <0>        -0.0805
     12 C8         -0.1282   -5.4077    4.3839 C.ar      1 <0>        -0.0492
     13 C9          0.6713   -6.5212    4.2079 C.ar      1 <0>        -0.1469
     14 C10         2.0001   -6.4891    4.5908 C.ar      1 <0>         0.1480
     15 C11         2.5319   -5.3263    5.1565 C.ar      1 <0>        -0.1694
     16 C12         1.7170   -4.2048    5.3258 C.ar      1 <0>        -0.0562
     17 C13         3.9495   -5.2828    5.5688 C.2       1 <0>         0.5735
     18 O2          4.3704   -6.0810    6.3834 O.2       1 <0>        -0.5081
     19 N3          4.7764   -4.3582    5.0418 N.am      1 <0>        -0.6119
     20 C14         4.2593   -3.3195    4.1398 C.3       1 <0>         0.0818
     21 C15         4.6490   -1.9459    4.6998 C.3       1 <0>         0.0968
     22 N4          6.0839   -1.9580    5.0173 N.am      1 <0>        -0.6002
     23 C16         6.6009   -2.9967    5.9193 C.3       1 <0>         0.0834
     24 C17         6.2104   -4.3669    5.3638 C.3       1 <0>         0.0978
     25 C18         6.9108   -1.0333    4.4904 C.2       1 <0>         0.5435
     26 O3          6.4616   -0.1355    3.8099 O.2       1 <0>        -0.4803
     27 C19         8.3936   -1.1151    4.7467 C.3       1 <0>        -0.0962
     28 C20         9.3301   -0.6360    3.6357 C.3       1 <0>        -0.1105
     29 C21         9.1965   -2.1311    3.9319 C.3       1 <0>        -0.1344
     30 N5          8.8105   -0.8777    6.1352 N.4       1 <0>        -0.4703
     31 C22         8.3114    0.4305    6.5795 C.3       1 <0>        -0.0471
     32 F1          2.7813   -7.5779    4.4190 F         1 <0>        -0.1248
     33 C23        -1.8534    1.0615    2.5848 C.3       1 <0>        -0.1030
     34 H2         -1.4499    0.0528    5.6801 H         1 <0>         0.0880
     35 H3         -2.8837    0.0066    4.6265 H         1 <0>         0.0846
     36 H4         -2.3944   -1.4482    5.5277 H         1 <0>         0.0819
     37 H5         -0.1422   -2.4741    5.9930 H         1 <0>         0.1038
     38 H6         -1.5156   -3.3675    5.2973 H         1 <0>         0.1083
     39 H7         -1.1650   -5.4378    4.0833 H         1 <0>         0.1407
     40 H8          0.2577   -7.4181    3.7710 H         1 <0>         0.1474
     41 H9          2.1221   -3.3021    5.7587 H         1 <0>         0.1329
     42 H10         4.6936   -3.4469    3.1482 H         1 <0>         0.0816
     43 H11         3.1737   -3.3952    4.0790 H         1 <0>         0.1189
     44 H12         4.4455   -1.1762    3.9552 H         1 <0>         0.1144
     45 H13         4.0758   -1.7437    5.6046 H         1 <0>         0.0873
     46 H14         7.6866   -2.9210    5.9801 H         1 <0>         0.0774
     47 H15         6.1667   -2.8693    6.9109 H         1 <0>         0.0968
     48 H16         6.4128   -5.1342    6.1110 H         1 <0>         0.1177
     49 H17         6.7867   -4.5706    4.4613 H         1 <0>         0.0813
     50 H18         8.8737   -0.2617    2.7193 H         1 <0>         0.1423
     51 H19        10.2558   -0.1444    3.9349 H         1 <0>         0.1346
     52 H20        10.0343   -2.6231    4.4259 H         1 <0>         0.1367
     53 H21         8.6522   -2.7404    3.2104 H         1 <0>         0.1374
     54 H22         8.4324   -1.6011    6.7283 H         1 <0>         0.4254
     55 H23         8.7006    0.6493    7.5739 H         1 <0>         0.1361
     56 H24         8.6411    1.2010    5.8826 H         1 <0>         0.1311
     57 H25         7.2220    0.4118    6.6118 H         1 <0>         0.1191
     58 H26        -1.2446    1.8845    2.9590 H         1 <0>         0.0799
     59 H27        -2.0982    1.2377    1.5373 H         1 <0>         0.0804
     60 H28        -2.7727    0.9958    3.1667 H         1 <0>         0.0805
     61 H29         9.8179   -0.8898    6.1906 H         1 <0>         0.4357
@<TRIPOS>BOND
     1    1    2 1
     2    1   34 1
     3    1   35 1
     4    1   36 1
     5    2    9 1
     6    2    3 2
     7    3    4 1
     8    3   33 1
     9    4    5 2
    10    4    6 am
    11    6    7 1
    12    6    8 1
    13    8    9 2
    14    9   10 1
    15   10   11 1
    16   10   37 1
    17   10   38 1
    18   11   16 ar
    19   11   12 ar
    20   12   13 ar
    21   12   39 1
    22   13   14 ar
    23   13   40 1
    24   14   15 ar
    25   14   32 1
    26   15   16 ar
    27   15   17 1
    28   16   41 1
    29   17   18 2
    30   17   19 am
    31   19   24 1
    32   19   20 1
    33   20   21 1
    34   20   42 1
    35   20   43 1
    36   21   22 1
    37   21   44 1
    38   21   45 1
    39   22   23 1
    40   22   25 am
    41   23   24 1
    42   23   46 1
    43   23   47 1
    44   24   48 1
    45   24   49 1
    46   25   26 2
    47   25   27 1
    48   27   29 1
    49   27   28 1
    50   27   30 1
    51   28   29 1
    52   28   50 1
    53   28   51 1
    54   29   52 1
    55   29   53 1
    56   30   31 1
    57   30   54 1
    58   30   61 1
    59   31   55 1
    60   31   56 1
    61   31   57 1
    62   33   58 1
    63   33   59 1
    64   33   60 1
@<TRIPOS>MOLECULE
CHEMBL599803__1
   60    63     0     0     0
SMALL
USER_CHARGES

@<TRIPOS>ATOM
      1 C1         -2.8244   -6.0304   -1.0031 C.3       1 <0>        -0.1078
      2 C2         -3.4451   -5.1999   -2.0968 C.ar      1 <0>        -0.0674
      3 C3         -3.9258   -5.7901   -3.2560 C.ar      1 <0>        -0.1997
      4 C4         -4.4867   -4.9624   -4.2247 C.ar      1 <0>         0.3658
      5 O1         -4.9715   -5.4924   -5.3760 O.3       1 <0>        -0.6932
      6 N1         -4.5456   -3.6563   -4.0179 N.ar      1 <0>        -0.3578
      7 N2         -4.0991   -3.1152   -2.9431 N.ar      1 <0>        -0.2005
      8 C5         -3.5577   -3.8230   -1.9714 C.ar      1 <0>        -0.0747
      9 C6         -3.0556   -3.1358   -0.7277 C.3       1 <0>        -0.0038
     10 C7         -4.1617   -3.0752    0.2940 C.ar      1 <0>        -0.0685
     11 C8         -5.0902   -2.0491    0.2458 C.ar      1 <0>        -0.0457
     12 C9         -6.1083   -1.9845    1.1781 C.ar      1 <0>        -0.1531
     13 C10        -6.2062   -2.9469    2.1667 C.ar      1 <0>         0.1371
     14 C11        -5.2716   -3.9855    2.2198 C.ar      1 <0>        -0.1805
     15 C12        -4.2492   -4.0446    1.2701 C.ar      1 <0>        -0.0664
     16 C13        -5.3677   -5.0175    3.2720 C.2       1 <0>         0.5768
     17 O2         -6.4367   -5.5454    3.5097 O.2       1 <0>        -0.5128
     18 N3         -4.2704   -5.3738    3.9687 N.am      1 <0>        -0.6151
     19 C14        -2.9996   -4.6605    3.7789 C.3       1 <0>         0.0842
     20 C15        -2.5165   -4.1489    5.1416 C.3       1 <0>         0.0954
     21 N4         -2.5695   -5.2574    6.1051 N.am      1 <0>        -0.5966
     22 C16        -3.8403   -5.9707    6.2949 C.3       1 <0>         0.0825
     23 C17        -4.3249   -6.4787    4.9362 C.3       1 <0>         0.0990
     24 C18        -1.4721   -5.6138    6.8018 C.2       1 <0>         0.5414
     25 O3         -0.4450   -4.9802    6.6812 O.2       1 <0>        -0.4841
     26 C19        -1.5214   -6.7995    7.7305 C.3       1 <0>        -0.0947
     27 C20        -0.2670   -7.6696    7.8326 C.3       1 <0>        -0.1114
     28 C21        -1.5034   -8.1929    7.0988 C.3       1 <0>        -0.1359
     29 N5         -2.3220   -6.6174    8.9487 N.4       1 <0>        -0.4693
     30 C22        -1.8055   -5.4701    9.7070 C.3       1 <0>        -0.0460
     31 F1         -7.2013   -2.8834    3.0783 F         1 <0>        -0.1302
     32 C23        -3.8432   -7.2809   -3.4608 C.3       1 <0>        -0.0807
     33 H1         -3.5859   -6.2911   -0.2682 H         1 <0>         0.0598
     34 H2         -2.4060   -6.9412   -1.4315 H         1 <0>         0.0654
     35 H3         -2.0322   -5.4597   -0.5186 H         1 <0>         0.0614
     36 H4         -2.2135   -3.6942   -0.3188 H         1 <0>         0.0775
     37 H5         -2.7346   -2.1242   -0.9761 H         1 <0>         0.0868
     38 H6         -5.0181   -1.2952   -0.5242 H         1 <0>         0.1472
     39 H7         -6.8286   -1.1809    1.1348 H         1 <0>         0.1439
     40 H8         -3.5260   -4.8461    1.3029 H         1 <0>         0.1356
     41 H9         -2.2578   -5.3401    3.3593 H         1 <0>         0.0835
     42 H10        -3.1503   -3.8178    3.1042 H         1 <0>         0.1186
     43 H11        -1.4914   -3.7885    5.0546 H         1 <0>         0.1163
     44 H12        -3.1640   -3.3397    5.4791 H         1 <0>         0.0888
     45 H13        -3.6896   -6.8135    6.9696 H         1 <0>         0.0774
     46 H14        -4.5821   -5.2912    6.7145 H         1 <0>         0.0948
     47 H15        -5.3506   -6.8364    5.0257 H         1 <0>         0.1155
     48 H16        -3.6796   -7.2907    4.6010 H         1 <0>         0.0794
     49 H17         0.5939   -7.3844    7.2279 H         1 <0>         0.1418
     50 H18        -0.0355   -8.1069    8.8038 H         1 <0>         0.1326
     51 H19        -2.0853   -8.9745    7.5873 H         1 <0>         0.1355
     52 H20        -1.4559   -8.2520    6.0115 H         1 <0>         0.1387
     53 H21        -3.2842   -6.4482    8.6966 H         1 <0>         0.4270
     54 H22        -2.3347   -5.3945   10.6569 H         1 <0>         0.1340
     55 H23        -0.7406   -5.6082    9.8944 H         1 <0>         0.1301
     56 H24        -1.9579   -4.5565    9.1325 H         1 <0>         0.1205
     57 H25        -4.7457   -7.7517   -3.0709 H         1 <0>         0.0520
     58 H26        -3.7516   -7.4968   -4.5253 H         1 <0>         0.0673
     59 H27        -2.9727   -7.6723   -2.9344 H         1 <0>         0.0482
     60 H28        -2.2643   -7.4494    9.5166 H         1 <0>         0.4342
@<TRIPOS>BOND
     1    1    2 1
     2    1   33 1
     3    1   34 1
     4    1   35 1
     5    2    8 ar
     6    2    3 ar
     7    3    4 ar
     8    3   32 1
     9    4    5 1
    10    4    6 ar
    11    6    7 ar
    12    7    8 ar
    13    8    9 1
    14    9   10 1
    15    9   36 1
    16    9   37 1
    17   10   15 ar
    18   10   11 ar
    19   11   12 ar
    20   11   38 1
    21   12   13 ar
    22   12   39 1
    23   13   14 ar
    24   13   31 1
    25   14   15 ar
    26   14   16 1
    27   15   40 1
    28   16   17 2
    29   16   18 am
    30   18   23 1
    31   18   19 1
    32   19   20 1
    33   19   41 1
    34   19   42 1
    35   20   21 1
    36   20   43 1
    37   20   44 1
    38   21   22 1
    39   21   24 am
    40   22   23 1
    41   22   45 1
    42   22   46 1
    43   23   47 1
    44   23   48 1
    45   24   25 2
    46   24   26 1
    47   26   28 1
    48   26   27 1
    49   26   29 1
    50   27   28 1
    51   27   49 1
    52   27   50 1
    53   28   51 1
    54   28   52 1
    55   29   30 1
    56   29   53 1
    57   29   60 1
    58   30   54 1
    59   30   55 1
    60   30   56 1
    61   32   57 1
    62   32   58 1
    63   32   59 1
@<TRIPOS>MOLECULE
CHEMBL604293
   54    57     0     0     0
SMALL
USER_CHARGES

@<TRIPOS>ATOM
      1 C1          0.0560    1.5332    0.0004 C.3       1 <0>        -0.1248
      2 C2          0.0800    0.0265   -0.0171 C.2       1 <0>        -0.0474
      3 C3          0.1027   -0.6599   -1.1979 C.2       1 <0>        -0.1507
      4 C4          0.1244   -2.0701   -1.1394 C.2       1 <0>         0.4819
      5 O1          0.1455   -2.7297   -2.1663 O.2       1 <0>        -0.5225
      6 N1          0.1218   -2.6802    0.0612 N.am      1 <0>        -0.4488
      7 H1          0.1367   -3.6493    0.0991 H         1 <0>         0.4411
      8 N2          0.1007   -2.0113    1.1568 N.2       1 <0>        -0.2130
      9 C5          0.0853   -0.7075    1.1805 C.2       1 <0>         0.0646
     10 C6          0.0675    0.0166    2.5020 C.3       1 <0>        -0.0111
     11 C7          0.0774   -0.9878    3.6254 C.ar      1 <0>        -0.0822
     12 C8         -1.1182   -1.4706    4.1299 C.ar      1 <0>        -0.0473
     13 C9         -1.1200   -2.3920    5.1600 C.ar      1 <0>        -0.1486
     14 C10         0.0755   -2.8384    5.6939 C.ar      1 <0>         0.1485
     15 C11         1.2857   -2.3545    5.1879 C.ar      1 <0>        -0.1737
     16 C12         1.2769   -1.4272    4.1435 C.ar      1 <0>        -0.0521
     17 C13         2.5671   -2.8251    5.7518 C.2       1 <0>         0.5727
     18 O2          2.8018   -4.0161    5.8165 O.2       1 <0>        -0.4995
     19 N3          3.4762   -1.9340    6.1946 N.am      1 <0>        -0.6188
     20 C14         3.1528   -0.5021    6.2449 C.3       1 <0>         0.0921
     21 C15         3.3827    0.0060    7.6728 C.3       1 <0>        -0.1471
     22 C16         4.7943   -0.3762    8.1183 C.3       1 <0>         0.0664
     23 C17         5.2079    0.2631    9.4479 C.3       1 <0>        -0.1510
     24 C18         6.5673    0.4173    8.7505 C.3       1 <0>         0.0036
     25 N4          5.8483    0.4145    7.4623 N.4       1 <0>        -0.5334
     26 C19         5.0439   -1.8834    8.0647 C.3       1 <0>        -0.1377
     27 C20         4.8025   -2.3814    6.6398 C.3       1 <0>         0.1006
     28 F1          0.0736   -3.7388    6.7012 F         1 <0>        -0.1239
     29 C21         0.1042    0.0645   -2.5194 C.3       1 <0>        -0.1028
     30 H2          1.0777    1.9128    0.0099 H         1 <0>         0.0867
     31 H3         -0.4590    1.8987   -0.8880 H         1 <0>         0.0846
     32 H4         -0.4680    1.8780    0.8918 H         1 <0>         0.0802
     33 H5          0.9473    0.6555    2.5781 H         1 <0>         0.1009
     34 H6         -0.8324    0.6280    2.5692 H         1 <0>         0.1067
     35 H7         -2.0543   -1.1252    3.7166 H         1 <0>         0.1411
     36 H8         -2.0563   -2.7638    5.5491 H         1 <0>         0.1477
     37 H9          2.2081   -1.0520    3.7454 H         1 <0>         0.1330
     38 H10         3.7975    0.0424    5.5550 H         1 <0>         0.0732
     39 H11         2.1092   -0.3533    5.9676 H         1 <0>         0.1145
     40 H12         3.2744    1.0904    7.6957 H         1 <0>         0.1053
     41 H13         2.6534   -0.4485    8.3433 H         1 <0>         0.1187
     42 H14         4.7075    1.2070    9.6643 H         1 <0>         0.1271
     43 H15         5.2147   -0.4266   10.2919 H         1 <0>         0.1306
     44 H16         7.0625    1.3634    8.9692 H         1 <0>         0.1412
     45 H17         7.2233   -0.4430    8.8833 H         1 <0>         0.1519
     46 H18         6.3324   -0.0881    6.7335 H         1 <0>         0.4225
     47 H19         6.0732   -2.0930    8.3559 H         1 <0>         0.1053
     48 H20         4.3607   -2.3904    8.7461 H         1 <0>         0.1219
     49 H21         4.8455   -3.4704    6.6228 H         1 <0>         0.1198
     50 H22         5.5667   -1.9731    5.9785 H         1 <0>         0.0704
     51 H23         1.1320    0.2557   -2.8278 H         1 <0>         0.0806
     52 H24        -0.3924   -0.5494   -3.2708 H         1 <0>         0.0810
     53 H25        -0.4260    1.0112   -2.4154 H         1 <0>         0.0802
     54 H26         5.5410    1.3307    7.1721 H         1 <0>         0.4393
@<TRIPOS>BOND
     1    1    2 1
     2    1   30 1
     3    1   31 1
     4    1   32 1
     5    2    9 1
     6    2    3 2
     7    3    4 1
     8    3   29 1
     9    4    5 2
    10    4    6 am
    11    6    7 1
    12    6    8 1
    13    8    9 2
    14    9   10 1
    15   10   11 1
    16   10   33 1
    17   10   34 1
    18   11   16 ar
    19   11   12 ar
    20   12   13 ar
    21   12   35 1
    22   13   14 ar
    23   13   36 1
    24   14   15 ar
    25   14   28 1
    26   15   16 ar
    27   15   17 1
    28   16   37 1
    29   17   18 2
    30   17   19 am
    31   19   27 1
    32   19   20 1
    33   20   21 1
    34   20   38 1
    35   20   39 1
    36   21   22 1
    37   21   40 1
    38   21   41 1
    39   22   25 1
    40   22   23 1
    41   22   26 1
    42   23   24 1
    43   23   42 1
    44   23   43 1
    45   24   25 1
    46   24   44 1
    47   24   45 1
    48   25   46 1
    49   25   54 1
    50   26   27 1
    51   26   47 1
    52   26   48 1
    53   27   49 1
    54   27   50 1
    55   29   51 1
    56   29   52 1
    57   29   53 1
@<TRIPOS>MOLECULE
CHEMBL604293__1
   53    56     0     0     0
SMALL
USER_CHARGES

@<TRIPOS>ATOM
      1 C1          0.1064   -2.9545    2.4698 C.3       1 <0>        -0.1073
      2 C2          0.0911   -2.1593    1.1897 C.ar      1 <0>        -0.0685
      3 C3          0.1977   -2.7871   -0.0422 C.ar      1 <0>        -0.1985
      4 C4          0.1764   -1.9906   -1.1839 C.ar      1 <0>         0.3660
      5 O1          0.2772   -2.5580   -2.4124 O.3       1 <0>        -0.6908
      6 N1          0.0571   -0.6776   -1.0660 N.ar      1 <0>        -0.3569
      7 N2         -0.0412   -0.1016    0.0768 N.ar      1 <0>        -0.2000
      8 C5         -0.0358   -0.7780    1.2085 C.ar      1 <0>        -0.0770
      9 C6         -0.1611   -0.0503    2.5222 C.3       1 <0>        -0.0021
     10 C7         -1.6052   -0.0360    2.9528 C.ar      1 <0>        -0.0675
     11 C8         -2.4602    0.9391    2.4676 C.ar      1 <0>        -0.0474
     12 C9         -3.7863    0.9610    2.8563 C.ar      1 <0>        -0.1507
     13 C10        -4.2681    0.0066    3.7340 C.ar      1 <0>         0.1343
     14 C11        -3.4091   -0.9806    4.2266 C.ar      1 <0>        -0.1802
     15 C12        -2.0719   -0.9970    3.8240 C.ar      1 <0>        -0.0680
     16 C13        -3.9145   -2.0035    5.1645 C.2       1 <0>         0.5774
     17 O2         -4.8900   -2.6674    4.8719 O.2       1 <0>        -0.5034
     18 N3         -3.2941   -2.2010    6.3446 N.am      1 <0>        -0.6194
     19 C14        -2.1996   -1.3177    6.7679 C.3       1 <0>         0.0907
     20 C15        -2.5419   -0.7317    8.1426 C.3       1 <0>        -0.1466
     21 C16        -2.8886   -1.8720    9.1000 C.3       1 <0>         0.0670
     22 C17        -3.0412   -1.4202   10.5560 C.3       1 <0>        -0.1510
     23 C18        -2.3227   -2.7432   10.8588 C.3       1 <0>         0.0038
     24 N4         -1.7185   -2.6625    9.5154 N.4       1 <0>        -0.5332
     25 C19        -4.0540   -2.7277    8.6035 C.3       1 <0>        -0.1366
     26 C20        -3.7068   -3.2989    7.2287 C.3       1 <0>         0.1006
     27 F1         -5.5643    0.0284    4.1142 F         1 <0>        -0.1304
     28 C21         0.3328   -4.2847   -0.1420 C.3       1 <0>        -0.0814
     29 H1         -0.9174   -3.1653    2.7788 H         1 <0>         0.0601
     30 H2          0.6377   -3.8925    2.3084 H         1 <0>         0.0654
     31 H3          0.6100   -2.3808    3.2479 H         1 <0>         0.0592
     32 H4          0.4382   -0.5585    3.2776 H         1 <0>         0.0753
     33 H5          0.1935    0.9738    2.4055 H         1 <0>         0.0873
     34 H6         -2.0889    1.6865    1.7821 H         1 <0>         0.1473
     35 H7         -4.4474    1.7249    2.4744 H         1 <0>         0.1447
     36 H8         -1.4037   -1.7587    4.1977 H         1 <0>         0.1348
     37 H9         -1.2739   -1.8893    6.8346 H         1 <0>         0.0733
     38 H10        -2.0816   -0.5101    6.0455 H         1 <0>         0.1180
     39 H11        -1.6840   -0.1806    8.5277 H         1 <0>         0.1043
     40 H12        -3.3960   -0.0608    8.0504 H         1 <0>         0.1182
     41 H13        -2.4649   -0.5307   10.8103 H         1 <0>         0.1263
     42 H14        -4.0728   -1.3822   10.9059 H         1 <0>         0.1293
     43 H15        -1.5954   -2.6670   11.6671 H         1 <0>         0.1395
     44 H16        -3.0010   -3.5878   10.9797 H         1 <0>         0.1507
     45 H17        -1.6520   -3.5557    9.0508 H         1 <0>         0.4232
     46 H18        -4.2316   -3.5435    9.3042 H         1 <0>         0.1028
     47 H19        -4.9501   -2.1123    8.5241 H         1 <0>         0.1209
     48 H20        -4.5817   -3.7962    6.8098 H         1 <0>         0.1189
     49 H21        -2.8904   -4.0140    7.3287 H         1 <0>         0.0692
     50 H22        -0.6575   -4.7352   -0.2090 H         1 <0>         0.0527
     51 H23         0.9086   -4.5391   -1.0318 H         1 <0>         0.0679
     52 H24         0.8449   -4.6631    0.7427 H         1 <0>         0.0479
     53 H25        -0.8544   -2.1419    9.4944 H         1 <0>         0.4397
@<TRIPOS>BOND
     1    1    2 1
     2    1   29 1
     3    1   30 1
     4    1   31 1
     5    2    8 ar
     6    2    3 ar
     7    3    4 ar
     8    3   28 1
     9    4    5 1
    10    4    6 ar
    11    6    7 ar
    12    7    8 ar
    13    8    9 1
    14    9   10 1
    15    9   32 1
    16    9   33 1
    17   10   15 ar
    18   10   11 ar
    19   11   12 ar
    20   11   34 1
    21   12   13 ar
    22   12   35 1
    23   13   14 ar
    24   13   27 1
    25   14   15 ar
    26   14   16 1
    27   15   36 1
    28   16   17 2
    29   16   18 am
    30   18   26 1
    31   18   19 1
    32   19   20 1
    33   19   37 1
    34   19   38 1
    35   20   21 1
    36   20   39 1
    37   20   40 1
    38   21   24 1
    39   21   22 1
    40   21   25 1
    41   22   23 1
    42   22   41 1
    43   22   42 1
    44   23   24 1
    45   23   43 1
    46   23   44 1
    47   24   45 1
    48   24   53 1
    49   25   26 1
    50   25   46 1
    51   25   47 1
    52   26   48 1
    53   26   49 1
    54   28   50 1
    55   28   51 1
    56   28   52 1
@<TRIPOS>MOLECULE
CHEMBL590400
   62    66     0     0     0
SMALL
USER_CHARGES

@<TRIPOS>ATOM
      1 C1          7.2605    1.5374    0.1124 C.ar      1 <0>        -0.0465
      2 C2          6.2105    1.9639   -0.6793 C.ar      1 <0>        -0.1467
      3 C3          5.0818    1.1771   -0.8177 C.ar      1 <0>         0.1616
      4 C4          5.0060   -0.0518   -0.1541 C.ar      1 <0>        -0.1789
      5 C5          6.0718   -0.4736    0.6431 C.ar      1 <0>        -0.0606
      6 C6          7.1907    0.3221    0.7713 C.ar      1 <0>        -0.1038
      7 C7          8.3414   -0.1331    1.6313 C.3       1 <0>        -0.0257
      8 C8          8.1700    0.4079    3.0274 C.2       1 <0>         0.0002
      9 C9          7.0752    1.0890    3.3319 C.2       1 <0>         0.0950
     10 N1          6.8642    1.6093    4.5982 N.am      1 <0>        -0.6450
     11 H1          6.0511    2.1030    4.7880 H         1 <0>         0.4275
     12 C10         7.7854    1.4318    5.5700 C.2       1 <0>         0.5808
     13 O1          7.6075    1.8857    6.6864 O.2       1 <0>        -0.4906
     14 C11         9.0010    0.6824    5.2531 C.2       1 <0>        -0.0385
     15 N2          9.1613    0.1789    3.9759 N.pl3     1 <0>        -0.3440
     16 C12        10.3468   -0.4767    3.9223 C.2       1 <0>         0.0936
     17 C13        10.9449   -0.4073    5.1406 C.2       1 <0>        -0.0844
     18 C14        10.1113    0.3280    5.9880 C.2       1 <0>        -0.0715
     19 Cl1        12.4799   -1.0980    5.5655 Cl        1 <0>        -0.0076
     20 Cl2        10.9951   -1.2762    2.5244 Cl        1 <0>         0.0102
     21 C15         3.8043   -0.8987   -0.2956 C.2       1 <0>         0.5754
     22 O2          2.6978   -0.4060   -0.1922 O.2       1 <0>        -0.4889
     23 N3          3.9345   -2.2179   -0.5394 N.am      1 <0>        -0.6283
     24 C16         2.7587   -3.1013   -0.5686 C.3       1 <0>         0.0909
     25 C17         2.8017   -3.9247   -1.8601 C.3       1 <0>        -0.0252
     26 N4          4.0888   -4.6257   -1.9499 N.4       1 <0>        -0.3822
     27 C18         5.1816   -3.6518   -2.0656 C.3       1 <0>        -0.0267
     28 C19         5.2559   -2.8140   -0.7898 C.3       1 <0>         0.0780
     29 C20         4.0871   -5.4997   -3.1306 C.3       1 <0>         0.0245
     30 C21         2.9559   -6.5223   -3.0064 C.3       1 <0>        -0.1410
     31 C22         2.9540   -7.4326   -4.2362 C.3       1 <0>        -0.1176
     32 C23         4.2946   -8.1639   -4.3314 C.3       1 <0>        -0.1318
     33 C24         5.4258   -7.1412   -4.4555 C.3       1 <0>        -0.1175
     34 C25         5.4276   -6.2310   -3.2258 C.3       1 <0>        -0.1403
     35 F1          4.0556    1.5942   -1.5911 F         1 <0>        -0.1162
     36 H2          8.1417    2.1536    0.2137 H         1 <0>         0.1494
     37 H3          6.2717    2.9134   -1.1902 H         1 <0>         0.1547
     38 H4          6.0198   -1.4211    1.1587 H         1 <0>         0.1429
     39 H5          8.3620   -1.2224    1.6638 H         1 <0>         0.0989
     40 H6          9.2771    0.2357    1.2111 H         1 <0>         0.1045
     41 H7          6.3253    1.2434    2.5702 H         1 <0>         0.1779
     42 H8         10.2970    0.5639    7.0254 H         1 <0>         0.1754
     43 H9          2.7809   -3.7693    0.2925 H         1 <0>         0.0988
     44 H10         1.8490   -2.5012   -0.5469 H         1 <0>         0.1386
     45 H11         1.9908   -4.6531   -1.8540 H         1 <0>         0.1479
     46 H12         2.6884   -3.2616   -2.7178 H         1 <0>         0.1348
     47 H13         6.1245   -4.1791   -2.2109 H         1 <0>         0.1487
     48 H14         4.9963   -2.9970   -2.9171 H         1 <0>         0.1348
     49 H15         5.9965   -2.0240   -0.9144 H         1 <0>         0.1344
     50 H16         5.5346   -3.4524    0.0485 H         1 <0>         0.1006
     51 H17         3.9366   -4.8986   -4.0273 H         1 <0>         0.1370
     52 H18         3.1063   -7.1234   -2.1097 H         1 <0>         0.0877
     53 H19         2.0008   -6.0013   -2.9386 H         1 <0>         0.0878
     54 H20         2.1482   -8.1612   -4.1478 H         1 <0>         0.0857
     55 H21         2.8036   -6.8315   -5.1330 H         1 <0>         0.0744
     56 H22         4.4450   -8.7650   -3.4346 H         1 <0>         0.0707
     57 H23         4.2933   -8.8124   -5.2075 H         1 <0>         0.0801
     58 H24         6.3808   -7.6623   -4.5233 H         1 <0>         0.0857
     59 H25         5.2753   -6.5402   -5.3523 H         1 <0>         0.0744
     60 H26         6.2335   -5.5024   -3.3142 H         1 <0>         0.0872
     61 H27         5.5780   -6.8321   -2.3290 H         1 <0>         0.0877
     62 H28         4.2245   -5.1847   -1.1209 H         1 <0>         0.4211
@<TRIPOS>BOND
     1    1    6 ar
     2    1    2 ar
     3    1   36 1
     4    2    3 ar
     5    2   37 1
     6    3    4 ar
     7    3   35 1
     8    4    5 ar
     9    4   21 1
    10    5    6 ar
    11    5   38 1
    12    6    7 1
    13    7    8 1
    14    7   39 1
    15    7   40 1
    16    8   15 1
    17    8    9 2
    18    9   10 1
    19    9   41 1
    20   10   11 1
    21   10   12 am
    22   12   13 2
    23   12   14 1
    24   14   18 2
    25   14   15 1
    26   15   16 1
    27   16   17 2
    28   16   20 1
    29   17   18 1
    30   17   19 1
    31   18   42 1
    32   21   22 2
    33   21   23 am
    34   23   28 1
    35   23   24 1
    36   24   25 1
    37   24   43 1
    38   24   44 1
    39   25   26 1
    40   25   45 1
    41   25   46 1
    42   26   27 1
    43   26   29 1
    44   26   62 1
    45   27   28 1
    46   27   47 1
    47   27   48 1
    48   28   49 1
    49   28   50 1
    50   29   34 1
    51   29   30 1
    52   29   51 1
    53   30   31 1
    54   30   52 1
    55   30   53 1
    56   31   32 1
    57   31   54 1
    58   31   55 1
    59   32   33 1
    60   32   56 1
    61   32   57 1
    62   33   34 1
    63   33   58 1
    64   33   59 1
    65   34   60 1
    66   34   61 1
@<TRIPOS>MOLECULE
CHEMBL590400__1
   61    65     0     0     0
SMALL
USER_CHARGES

@<TRIPOS>ATOM
      1 C1          7.2588    1.5378    0.1135 C.ar      1 <0>        -0.0562
      2 C2          6.2092    1.9611   -0.6805 C.ar      1 <0>        -0.1528
      3 C3          5.0817    1.1726   -0.8184 C.ar      1 <0>         0.1566
      4 C4          5.0065   -0.0547   -0.1520 C.ar      1 <0>        -0.1620
      5 C5          6.0718   -0.4733    0.6475 C.ar      1 <0>        -0.0529
      6 C6          7.1896    0.3240    0.7752 C.ar      1 <0>        -0.1108
      7 C7          8.3398   -0.1277    1.6377 C.3       1 <0>        -0.0247
      8 C8          8.1663    0.4169    3.0321 C.2       1 <0>         0.0036
      9 C9          7.0708    1.0982    3.3334 C.2       1 <0>         0.0944
     10 N1          6.8579    1.6218    4.5981 N.am      1 <0>        -0.6435
     11 H1          6.0443    2.1157    4.7856 H         1 <0>         0.4270
     12 C10         7.7780    1.4474    5.5716 C.2       1 <0>         0.5816
     13 O1          7.5984    1.9042    6.6865 O.2       1 <0>        -0.4981
     14 C11         8.9944    0.6978    5.2582 C.2       1 <0>        -0.0395
     15 N2          9.1565    0.1909    3.9825 N.pl3     1 <0>        -0.3408
     16 C12        10.3424   -0.4642    3.9322 C.2       1 <0>         0.0954
     17 C13        10.9389   -0.3912    5.1511 C.2       1 <0>        -0.0868
     18 C14        10.1039    0.3459    5.9954 C.2       1 <0>        -0.0748
     19 Cl1        12.4737   -1.0800    5.5798 Cl        1 <0>        -0.0126
     20 Cl2        10.9929   -1.2671    2.5372 Cl        1 <0>         0.0126
     21 C15         3.8061   -0.9035   -0.2930 C.2       1 <0>         0.5620
     22 O2          2.6988   -0.4124   -0.1891 O.2       1 <0>        -0.5198
     23 N3          3.9381   -2.2224   -0.5367 N.am      1 <0>        -0.6057
     24 C16         2.7629   -3.1064   -0.5644 C.3       1 <0>         0.1175
     25 C17         2.7942   -3.9171   -1.8644 C.3       1 <0>         0.0370
     26 N4          4.0890   -4.6014   -1.9800 N.3       1 <0>        -0.5328
     27 C18         5.1942   -3.6382   -2.0733 C.3       1 <0>         0.0350
     28 C19         5.2606   -2.8150   -0.7879 C.3       1 <0>         0.1059
     29 C20         4.0967   -5.5239   -3.1231 C.3       1 <0>         0.0871
     30 C21         3.0010   -6.5754   -2.9373 C.3       1 <0>        -0.1131
     31 C22         3.0090   -7.5363   -4.1279 C.3       1 <0>        -0.1192
     32 C23         4.3707   -8.2285   -4.2155 C.3       1 <0>        -0.1212
     33 C24         5.4664   -7.1770   -4.4013 C.3       1 <0>        -0.1190
     34 C25         5.4583   -6.2161   -3.2106 C.3       1 <0>        -0.1141
     35 F1          4.0559    1.5866   -1.5940 F         1 <0>        -0.1188
     36 H2          8.1391    2.1553    0.2144 H         1 <0>         0.1438
     37 H3          6.2698    2.9095   -1.1936 H         1 <0>         0.1491
     38 H4          6.0204   -1.4197    1.1653 H         1 <0>         0.1438
     39 H5          8.3614   -1.2169    1.6732 H         1 <0>         0.1004
     40 H6          9.2756    0.2408    1.2176 H         1 <0>         0.1019
     41 H7          6.3217    1.2502    2.5704 H         1 <0>         0.1814
     42 H8         10.2881    0.5847    7.0324 H         1 <0>         0.1734
     43 H9          2.7932   -3.7828    0.2898 H         1 <0>         0.0802
     44 H10         1.8531   -2.5072   -0.5284 H         1 <0>         0.0982
     45 H11         1.9925   -4.6554   -1.8520 H         1 <0>         0.0949
     46 H12         2.6595   -3.2476   -2.7140 H         1 <0>         0.0392
     47 H13         6.1331   -4.1743   -2.2123 H         1 <0>         0.0962
     48 H14         5.0261   -2.9726   -2.9199 H         1 <0>         0.0383
     49 H15         6.0014   -2.0232   -0.8996 H         1 <0>         0.0918
     50 H16         5.5357   -3.4629    0.0444 H         1 <0>         0.0820
     51 H17         3.9130   -4.9661   -4.0414 H         1 <0>         0.0406
     52 H18         3.1847   -7.1332   -2.0190 H         1 <0>         0.0730
     53 H19         2.0309   -6.0823   -2.8750 H         1 <0>         0.0626
     54 H20         2.2284   -8.2854   -3.9956 H         1 <0>         0.0655
     55 H21         2.8253   -6.9785   -5.0462 H         1 <0>         0.0600
     56 H22         4.5544   -8.7863   -3.2972 H         1 <0>         0.0638
     57 H23         4.3764   -8.9131   -5.0637 H         1 <0>         0.0621
     58 H24         6.4364   -7.6702   -4.4636 H         1 <0>         0.0653
     59 H25         5.2827   -6.6192   -5.3196 H         1 <0>         0.0601
     60 H26         6.2389   -5.4670   -3.3430 H         1 <0>         0.0625
     61 H27         5.6420   -6.7739   -2.2924 H         1 <0>         0.0731
@<TRIPOS>BOND
     1    1    6 ar
     2    1    2 ar
     3    1   36 1
     4    2    3 ar
     5    2   37 1
     6    3    4 ar
     7    3   35 1
     8    4    5 ar
     9    4   21 1
    10    5    6 ar
    11    5   38 1
    12    6    7 1
    13    7    8 1
    14    7   39 1
    15    7   40 1
    16    8   15 1
    17    8    9 2
    18    9   10 1
    19    9   41 1
    20   10   11 1
    21   10   12 am
    22   12   13 2
    23   12   14 1
    24   14   18 2
    25   14   15 1
    26   15   16 1
    27   16   17 2
    28   16   20 1
    29   17   18 1
    30   17   19 1
    31   18   42 1
    32   21   22 2
    33   21   23 am
    34   23   28 1
    35   23   24 1
    36   24   25 1
    37   24   43 1
    38   24   44 1
    39   25   26 1
    40   25   45 1
    41   25   46 1
    42   26   27 1
    43   26   29 1
    44   27   28 1
    45   27   47 1
    46   27   48 1
    47   28   49 1
    48   28   50 1
    49   29   34 1
    50   29   30 1
    51   29   51 1
    52   30   31 1
    53   30   52 1
    54   30   53 1
    55   31   32 1
    56   31   54 1
    57   31   55 1
    58   32   33 1
    59   32   56 1
    60   32   57 1
    61   33   34 1
    62   33   58 1
    63   33   59 1
    64   34   60 1
    65   34   61 1
@<TRIPOS>MOLECULE
CHEMBL1098296
   38    41     0     0     0
SMALL
USER_CHARGES

@<TRIPOS>ATOM
      1 C1         -0.0168    1.3848    0.0097 C.ar      1 <0>        -0.1742
      2 C2          1.1177    2.1322    0.0028 C.ar      1 <0>        -0.0017
      3 C3          2.3826    1.5133   -0.0126 C.ar      1 <0>        -0.2115
      4 C4          3.6910    1.9652   -0.0227 C.2       1 <0>         0.0872
      5 N1          4.4959    0.8918   -0.0362 N.pl3     1 <0>        -0.2718
      6 N2          3.7292   -0.2794   -0.0351 N.2       1 <0>        -0.2669
      7 C5          2.4541    0.0429   -0.0212 C.ar      1 <0>         0.1400
      8 C6          1.1954   -0.7094   -0.0132 C.ar      1 <0>        -0.1268
      9 C7          0.0021   -0.0041    0.0020 C.ar      1 <0>        -0.0214
     10 C8          1.1989   -2.1810   -0.0217 C.2       1 <0>         0.5622
     11 O1          2.2538   -2.7866   -0.0355 O.2       1 <0>        -0.5248
     12 N3          0.0334   -2.8577   -0.0142 N.am      1 <0>        -0.8543
     13 C9          5.8958    0.9364   -0.0493 C.ar      1 <0>         0.1372
     14 C10         6.5551    2.1590   -0.0433 C.ar      1 <0>        -0.1315
     15 C11         7.9333    2.1941   -0.0585 C.ar      1 <0>        -0.0885
     16 C12         8.6674    1.0163   -0.0784 C.ar      1 <0>        -0.1167
     17 C13         8.0152   -0.1987   -0.0808 C.ar      1 <0>        -0.0578
     18 C14         6.6303   -0.2397   -0.0627 C.ar      1 <0>        -0.1002
     19 C15         8.7715   -1.5025   -0.0901 C.3       1 <0>        -0.1225
     20 C16        10.2202   -1.2628   -0.5157 C.3       1 <0>         0.0540
     21 N4         10.7710   -0.1668    0.2973 N.3       1 <0>        -0.6785
     22 C17        10.1708    1.1107   -0.0999 C.3       1 <0>         0.0937
     23 H1         -0.9709    1.8905    0.0261 H         1 <0>         0.1326
     24 H2          1.0489    3.2100    0.0089 H         1 <0>         0.1314
     25 H3          4.0075    2.9978   -0.0204 H         1 <0>         0.1916
     26 H4         -0.9323   -0.5457    0.0084 H         1 <0>         0.1343
     27 H5         -0.8078   -2.3748   -0.0032 H         1 <0>         0.3990
     28 H6          0.0357   -3.8277   -0.0198 H         1 <0>         0.4060
     29 H7          5.9898    3.0791   -0.0271 H         1 <0>         0.1340
     30 H8          8.4453    3.1450   -0.0553 H         1 <0>         0.1381
     31 H9          6.1205   -1.1918   -0.0636 H         1 <0>         0.1432
     32 H10         8.7552   -1.9374    0.9093 H         1 <0>         0.0837
     33 H11         8.2978   -2.1906   -0.7902 H         1 <0>         0.0871
     34 H12        10.8043   -2.1686   -0.3530 H         1 <0>         0.0873
     35 H13        10.2514   -0.9881   -1.5700 H         1 <0>         0.0785
     36 H14        10.6319   -0.3413    1.2813 H         1 <0>         0.3455
     37 H15        10.5014    1.3666   -1.1065 H         1 <0>         0.0913
     38 H16        10.4927    1.8901    0.5908 H         1 <0>         0.0907
@<TRIPOS>BOND
     1    1    9 ar
     2    1    2 ar
     3    1   23 1
     4    2    3 ar
     5    2   24 1
     6    3    7 ar
     7    3    4 2
     8    4    5 1
     9    4   25 1
    10    5    6 1
    11    5   13 1
    12    6    7 2
    13    7    8 ar
    14    8    9 ar
    15    8   10 1
    16    9   26 1
    17   10   11 2
    18   10   12 am
    19   12   27 1
    20   12   28 1
    21   13   18 ar
    22   13   14 ar
    23   14   15 ar
    24   14   29 1
    25   15   16 ar
    26   15   30 1
    27   16   22 1
    28   16   17 ar
    29   17   18 ar
    30   17   19 1
    31   18   31 1
    32   19   20 1
    33   19   32 1
    34   19   33 1
    35   20   21 1
    36   20   34 1
    37   20   35 1
    38   21   22 1
    39   21   36 1
    40   22   37 1
    41   22   38 1
@<TRIPOS>MOLECULE
CHEMBL1098296__1
   39    42     0     0     0
SMALL
USER_CHARGES

@<TRIPOS>ATOM
      1 C1         -0.0168    1.3848    0.0097 C.ar      1 <0>        -0.1621
      2 C2          1.1177    2.1322    0.0028 C.ar      1 <0>        -0.0084
      3 C3          2.3826    1.5133   -0.0126 C.ar      1 <0>        -0.1985
      4 C4          3.6910    1.9652   -0.0227 C.2       1 <0>         0.0866
      5 N1          4.4959    0.8918   -0.0362 N.pl3     1 <0>        -0.2948
      6 N2          3.7292   -0.2794   -0.0351 N.2       1 <0>        -0.2658
      7 C5          2.4541    0.0429   -0.0212 C.ar      1 <0>         0.1502
      8 C6          1.1954   -0.7094   -0.0132 C.ar      1 <0>        -0.1284
      9 C7          0.0021   -0.0041    0.0020 C.ar      1 <0>        -0.0141
     10 C8          1.1989   -2.1810   -0.0217 C.2       1 <0>         0.5643
     11 O1          2.2538   -2.7866   -0.0355 O.2       1 <0>        -0.5295
     12 N3          0.0334   -2.8577   -0.0142 N.am      1 <0>        -0.8511
     13 C9          5.8958    0.9364   -0.0493 C.ar      1 <0>         0.1837
     14 C10         6.5550    2.1590   -0.0433 C.ar      1 <0>        -0.1278
     15 C11         7.9334    2.1949   -0.0579 C.ar      1 <0>        -0.0626
     16 C12         8.6674    1.0173   -0.0777 C.ar      1 <0>        -0.1478
     17 C13         8.0146   -0.1979   -0.0811 C.ar      1 <0>        -0.0637
     18 C14         6.6304   -0.2399   -0.0627 C.ar      1 <0>        -0.0998
     19 C15         8.7761   -1.4989   -0.0942 C.3       1 <0>        -0.1097
     20 C16        10.2258   -1.2460   -0.5098 C.3       1 <0>        -0.0026
     21 N4         10.7698   -0.1618    0.3223 N.4       1 <0>        -0.5053
     22 C17        10.1707    1.1082   -0.0975 C.3       1 <0>         0.0497
     23 H1         -0.9709    1.8905    0.0261 H         1 <0>         0.1382
     24 H2          1.0489    3.2100    0.0089 H         1 <0>         0.1359
     25 H3          4.0075    2.9978   -0.0204 H         1 <0>         0.1946
     26 H4         -0.9323   -0.5457    0.0084 H         1 <0>         0.1394
     27 H5         -0.8078   -2.3748   -0.0032 H         1 <0>         0.4008
     28 H6          0.0357   -3.8277   -0.0198 H         1 <0>         0.4086
     29 H7          5.9896    3.0790   -0.0276 H         1 <0>         0.1465
     30 H8          8.4452    3.1459   -0.0543 H         1 <0>         0.1479
     31 H9          6.1210   -1.1922   -0.0633 H         1 <0>         0.1547
     32 H10         8.7565   -1.9403    0.9023 H         1 <0>         0.1094
     33 H11         8.3104   -2.1843   -0.8023 H         1 <0>         0.1280
     34 H12        10.8129   -2.1521   -0.3599 H         1 <0>         0.1428
     35 H13        10.2600   -0.9540   -1.5594 H         1 <0>         0.1358
     36 H14        10.5479   -0.3360    1.2911 H         1 <0>         0.4324
     37 H15        10.5032    1.3457   -1.1080 H         1 <0>         0.1419
     38 H16        10.4919    1.8986    0.5809 H         1 <0>         0.1434
     39 H17        11.7712   -0.1174    0.2067 H         1 <0>         0.4374
@<TRIPOS>BOND
     1    1    9 ar
     2    1    2 ar
     3    1   23 1
     4    2    3 ar
     5    2   24 1
     6    3    7 ar
     7    3    4 2
     8    4    5 1
     9    4   25 1
    10    5    6 1
    11    5   13 1
    12    6    7 2
    13    7    8 ar
    14    8    9 ar
    15    8   10 1
    16    9   26 1
    17   10   11 2
    18   10   12 am
    19   12   27 1
    20   12   28 1
    21   13   18 ar
    22   13   14 ar
    23   14   15 ar
    24   14   29 1
    25   15   16 ar
    26   15   30 1
    27   16   22 1
    28   16   17 ar
    29   17   18 ar
    30   17   19 1
    31   18   31 1
    32   19   20 1
    33   19   32 1
    34   19   33 1
    35   20   21 1
    36   20   34 1
    37   20   35 1
    38   21   22 1
    39   21   36 1
    40   21   39 1
    41   22   37 1
    42   22   38 1
@<TRIPOS>MOLECULE
CHEMBL607633
   72    76     0     0     0
SMALL
USER_CHARGES

@<TRIPOS>ATOM
      1 C1          0.1543    1.3726    0.6405 C.ar      1 <0>        -0.1029
      2 C2          1.1690    2.0924    0.0427 C.ar      1 <0>        -0.0618
      3 C3          2.2215    1.4242   -0.5859 C.ar      1 <0>        -0.1368
      4 C4          2.2351    0.0283   -0.6024 C.ar      1 <0>        -0.1253
      5 C5          1.2161   -0.6856   -0.0012 C.ar      1 <0>         0.1695
      6 C6          0.1719   -0.0093    0.6217 C.ar      1 <0>        -0.0994
      7 N1          1.2336   -2.0849   -0.0201 N.am      1 <0>        -0.6744
      8 C7          0.0810   -2.7748    0.0896 C.2       1 <0>         0.5133
      9 O1         -0.9792   -2.1860    0.1036 O.2       1 <0>        -0.5131
     10 C8          0.1097   -4.2779    0.1949 C.3       1 <0>        -0.1403
     11 C9         -1.3209   -4.8086    0.3079 C.3       1 <0>        -0.1060
     12 C10        -1.2918   -6.3346    0.4147 C.3       1 <0>        -0.1201
     13 C11        -2.7224   -6.8652    0.5277 C.3       1 <0>        -0.1205
     14 C12        -2.6933   -8.3912    0.6346 C.3       1 <0>        -0.1044
     15 C13        -4.1239   -8.9219    0.7476 C.3       1 <0>        -0.1412
     16 C14        -4.0952  -10.4250    0.8529 C.2       1 <0>         0.5135
     17 O2         -3.0350  -11.0137    0.8389 O.2       1 <0>        -0.5393
     18 N2         -5.2478  -11.1149    0.9626 N.am      1 <0>        -0.7289
     19 C15        -5.2200  -12.5760    1.0649 C.3       1 <0>         0.1130
     20 C16        -6.6505  -13.1067    1.1779 C.3       1 <0>         0.0851
     21 H1         -7.1623  -12.6164    2.0060 H         1 <0>         0.1128
     22 C17        -6.6263  -14.6332    1.4074 C.3       1 <0>         0.0505
     23 H2         -5.6896  -15.0639    1.0534 H         1 <0>         0.0959
     24 C18        -7.8198  -15.1161    0.5389 C.3       1 <0>         0.0317
     25 H3         -7.6652  -16.1378    0.1920 H         1 <0>         0.0966
     26 C19        -7.7528  -14.1106   -0.6381 C.3       1 <0>         0.3226
     27 O3         -7.3575  -12.8620   -0.0436 O.3       1 <0>        -0.3582
     28 N3         -9.0683  -13.9781   -1.2691 N.pl3     1 <0>        -0.4620
     29 C20       -10.0001  -13.0206   -0.9983 C.2       1 <0>         0.2844
     30 N4        -11.0525  -13.2014   -1.7422 N.2       1 <0>        -0.4674
     31 C21       -10.8637  -14.2832   -2.5354 C.ar      1 <0>        -0.1043
     32 C22        -9.5860  -14.7914   -2.2453 C.ar      1 <0>         0.3064
     33 N5         -9.1528  -15.8628   -2.9013 N.ar      1 <0>        -0.5637
     34 C23        -9.9060  -16.4413   -3.8130 C.ar      1 <0>         0.3641
     35 N6        -11.1110  -15.9984   -4.1220 N.ar      1 <0>        -0.5921
     36 C24       -11.6320  -14.9383   -3.5125 C.ar      1 <0>         0.5086
     37 N7        -12.8953  -14.4809   -3.8440 N.pl3     1 <0>        -0.8170
     38 O4         -9.0543  -14.9979    1.2488 O.3       1 <0>        -0.5324
     39 O5         -6.8370  -14.9436    2.7863 O.3       1 <0>        -0.5407
     40 C25         3.4829   -0.3781   -1.3454 C.3       1 <0>         0.1469
     41 N8          4.1527    0.8679   -1.7353 N.am      1 <0>        -0.7232
     42 C26         3.4221    1.9069   -1.2954 C.2       1 <0>         0.5623
     43 O6          3.7090    3.0766   -1.4590 O.2       1 <0>        -0.5212
     44 H4         -0.6561    1.8923    1.1299 H         1 <0>         0.1393
     45 H5          1.1486    3.1720    0.0609 H         1 <0>         0.1355
     46 H6         -0.6258   -0.5651    1.0921 H         1 <0>         0.1560
     47 H7          2.0753   -2.5582   -0.1121 H         1 <0>         0.4129
     48 H8          0.5829   -4.6954   -0.6939 H         1 <0>         0.0985
     49 H9          0.6763   -4.5695    1.0792 H         1 <0>         0.0999
     50 H10        -1.7941   -4.3911    1.1966 H         1 <0>         0.0717
     51 H11        -1.8875   -4.5170   -0.5765 H         1 <0>         0.0717
     52 H12        -0.8186   -6.7521   -0.4740 H         1 <0>         0.0644
     53 H13        -0.7252   -6.6261    1.2991 H         1 <0>         0.0646
     54 H14        -3.1956   -6.4477    1.4165 H         1 <0>         0.0644
     55 H15        -3.2890   -6.5737   -0.3566 H         1 <0>         0.0643
     56 H16        -2.2200   -8.8087   -0.2541 H         1 <0>         0.0696
     57 H17        -2.1267   -8.6828    1.5189 H         1 <0>         0.0699
     58 H18        -4.5971   -8.5044    1.6363 H         1 <0>         0.0948
     59 H19        -4.6905   -8.6303   -0.1367 H         1 <0>         0.0949
     60 H20        -6.0958  -10.6440    0.9738 H         1 <0>         0.4054
     61 H21        -4.7467  -12.9935    0.1762 H         1 <0>         0.0757
     62 H22        -4.6533  -12.8676    1.9492 H         1 <0>         0.0880
     63 H23        -7.0122  -14.4333   -1.3697 H         1 <0>         0.1277
     64 H24        -9.8824  -12.2290   -0.2731 H         1 <0>         0.2196
     65 H25        -9.5238  -17.3104   -4.3278 H         1 <0>         0.2051
     66 H26       -13.2602  -13.6995   -3.4000 H         1 <0>         0.4194
     67 H27       -13.4161  -14.9418   -4.5202 H         1 <0>         0.4109
     68 H28        -9.0972  -15.5307    2.0546 H         1 <0>         0.3882
     69 H29        -6.8305  -15.8906    2.9817 H         1 <0>         0.3902
     70 H30         4.1319   -0.9646   -0.6950 H         1 <0>         0.0946
     71 H31         3.2199   -0.9553   -2.2318 H         1 <0>         0.0954
     72 H32         4.9853    0.9313   -2.2290 H         1 <0>         0.4271
@<TRIPOS>BOND
     1    1    6 ar
     2    1    2 ar
     3    1   44 1
     4    2    3 ar
     5    2   45 1
     6    3   42 1
     7    3    4 ar
     8    4    5 ar
     9    4   40 1
    10    5    6 ar
    11    5    7 1
    12    6   46 1
    13    7    8 am
    14    7   47 1
    15    8    9 2
    16    8   10 1
    17   10   11 1
    18   10   48 1
    19   10   49 1
    20   11   12 1
    21   11   50 1
    22   11   51 1
    23   12   13 1
    24   12   52 1
    25   12   53 1
    26   13   14 1
    27   13   54 1
    28   13   55 1
    29   14   15 1
    30   14   56 1
    31   14   57 1
    32   15   16 1
    33   15   58 1
    34   15   59 1
    35   16   17 2
    36   16   18 am
    37   18   19 1
    38   18   60 1
    39   19   20 1
    40   19   61 1
    41   19   62 1
    42   20   21 1
    43   20   27 1
    44   20   22 1
    45   22   23 1
    46   22   24 1
    47   22   39 1
    48   24   25 1
    49   24   26 1
    50   24   38 1
    51   26   27 1
    52   26   28 1
    53   26   63 1
    54   28   32 1
    55   28   29 1
    56   29   30 2
    57   29   64 1
    58   30   31 1
    59   31   36 ar
    60   31   32 ar
    61   32   33 ar
    62   33   34 ar
    63   34   35 ar
    64   34   65 1
    65   35   36 ar
    66   36   37 1
    67   37   66 1
    68   37   67 1
    69   38   68 1
    70   39   69 1
    71   40   41 1
    72   40   70 1
    73   40   71 1
    74   41   42 am
    75   41   72 1
    76   42   43 2
@<TRIPOS>MOLECULE
CHEMBL607633__1
   72    76     0     0     0
SMALL
USER_CHARGES

@<TRIPOS>ATOM
      1 C1          0.1543    1.3726    0.6405 C.ar      1 <0>        -0.1029
      2 C2          1.1690    2.0924    0.0427 C.ar      1 <0>        -0.0617
      3 C3          2.2215    1.4242   -0.5859 C.ar      1 <0>        -0.1368
      4 C4          2.2351    0.0283   -0.6024 C.ar      1 <0>        -0.1253
      5 C5          1.2161   -0.6856   -0.0012 C.ar      1 <0>         0.1694
      6 C6          0.1719   -0.0093    0.6217 C.ar      1 <0>        -0.0994
      7 N1          1.2336   -2.0849   -0.0201 N.am      1 <0>        -0.6744
      8 C7          0.0810   -2.7748    0.0896 C.2       1 <0>         0.5132
      9 O1         -0.9792   -2.1860    0.1036 O.2       1 <0>        -0.5131
     10 C8          0.1097   -4.2779    0.1949 C.3       1 <0>        -0.1403
     11 C9         -1.3209   -4.8086    0.3079 C.3       1 <0>        -0.1061
     12 C10        -1.2918   -6.3346    0.4147 C.3       1 <0>        -0.1201
     13 C11        -2.7224   -6.8652    0.5277 C.3       1 <0>        -0.1207
     14 C12        -2.6933   -8.3912    0.6346 C.3       1 <0>        -0.1044
     15 C13        -4.1239   -8.9219    0.7476 C.3       1 <0>        -0.1413
     16 C14        -4.0952  -10.4250    0.8529 C.2       1 <0>         0.5145
     17 O2         -3.0350  -11.0137    0.8389 O.2       1 <0>        -0.5382
     18 N2         -5.2478  -11.1149    0.9626 N.am      1 <0>        -0.7306
     19 C15        -5.2200  -12.5760    1.0649 C.3       1 <0>         0.1247
     20 C16        -6.6505  -13.1067    1.1779 C.3       1 <0>         0.0786
     21 H1         -7.1631  -12.6169    2.0058 H         1 <0>         0.1061
     22 C17        -6.6277  -14.6309    1.4040 C.3       1 <0>         0.0481
     23 H2         -5.6037  -15.0041    1.3851 H         1 <0>         0.0921
     24 C18        -7.4351  -15.2032    0.2136 C.3       1 <0>         0.0361
     25 H3         -6.7701  -15.5351   -0.5838 H         1 <0>         0.0877
     26 C19        -8.2668  -13.9747   -0.2352 C.3       1 <0>         0.3232
     27 O3         -7.3601  -12.8642   -0.0484 O.3       1 <0>        -0.3561
     28 N3         -8.6495  -14.0976   -1.6440 N.pl3     1 <0>        -0.4714
     29 C20        -7.9826  -13.5710   -2.7099 C.2       1 <0>         0.2617
     30 N4         -8.6004  -13.8737   -3.8146 N.2       1 <0>        -0.4597
     31 C21        -9.6999  -14.6116   -3.5288 C.ar      1 <0>        -0.1110
     32 C22        -9.7417  -14.7688   -2.1329 C.ar      1 <0>         0.3169
     33 N5        -10.7338  -15.4675   -1.5911 N.ar      1 <0>        -0.5473
     34 C23       -11.6648  -16.0088   -2.3482 C.ar      1 <0>         0.3651
     35 N6        -11.6658  -15.8912   -3.6634 N.ar      1 <0>        -0.5913
     36 C24       -10.7190  -15.2036   -4.2937 C.ar      1 <0>         0.5088
     37 N7        -10.7280  -15.0868   -5.6727 N.pl3     1 <0>        -0.8173
     38 O4         -8.2869  -16.2683    0.6402 O.3       1 <0>        -0.5248
     39 O5         -7.2566  -14.9621    2.6437 O.3       1 <0>        -0.5391
     40 C25         3.4829   -0.3781   -1.3454 C.3       1 <0>         0.1469
     41 N8          4.1527    0.8679   -1.7353 N.am      1 <0>        -0.7232
     42 C26         3.4221    1.9069   -1.2954 C.2       1 <0>         0.5623
     43 O6          3.7090    3.0766   -1.4590 O.2       1 <0>        -0.5211
     44 H4         -0.6561    1.8923    1.1299 H         1 <0>         0.1392
     45 H5          1.1486    3.1720    0.0609 H         1 <0>         0.1355
     46 H6         -0.6258   -0.5651    1.0921 H         1 <0>         0.1560
     47 H7          2.0753   -2.5582   -0.1121 H         1 <0>         0.4129
     48 H8          0.5829   -4.6954   -0.6939 H         1 <0>         0.0985
     49 H9          0.6763   -4.5695    1.0792 H         1 <0>         0.0999
     50 H10        -1.7941   -4.3911    1.1966 H         1 <0>         0.0717
     51 H11        -1.8875   -4.5170   -0.5765 H         1 <0>         0.0717
     52 H12        -0.8186   -6.7521   -0.4740 H         1 <0>         0.0645
     53 H13        -0.7252   -6.6261    1.2991 H         1 <0>         0.0646
     54 H14        -3.1956   -6.4477    1.4165 H         1 <0>         0.0643
     55 H15        -3.2890   -6.5737   -0.3566 H         1 <0>         0.0644
     56 H16        -2.2200   -8.8087   -0.2541 H         1 <0>         0.0700
     57 H17        -2.1267   -8.6828    1.5189 H         1 <0>         0.0699
     58 H18        -4.5971   -8.5044    1.6363 H         1 <0>         0.0949
     59 H19        -4.6905   -8.6303   -0.1367 H         1 <0>         0.0955
     60 H20        -6.0958  -10.6440    0.9738 H         1 <0>         0.4062
     61 H21        -4.7467  -12.9935    0.1762 H         1 <0>         0.0800
     62 H22        -4.6533  -12.8676    1.9492 H         1 <0>         0.0904
     63 H23        -9.1488  -13.8576    0.3944 H         1 <0>         0.1245
     64 H24        -7.0755  -12.9883   -2.6469 H         1 <0>         0.2226
     65 H25       -12.4572  -16.5705   -1.8759 H         1 <0>         0.2057
     66 H26       -10.0252  -14.5918   -6.1221 H         1 <0>         0.4190
     67 H27       -11.4370  -15.5000   -6.1898 H         1 <0>         0.4112
     68 H28        -7.8140  -17.0247    1.0135 H         1 <0>         0.3835
     69 H29        -7.2704  -15.9095    2.8369 H         1 <0>         0.3886
     70 H30         4.1319   -0.9646   -0.6950 H         1 <0>         0.0945
     71 H31         3.2199   -0.9553   -2.2318 H         1 <0>         0.0954
     72 H32         4.9853    0.9313   -2.2290 H         1 <0>         0.4271
@<TRIPOS>BOND
     1    1    6 ar
     2    1    2 ar
     3    1   44 1
     4    2    3 ar
     5    2   45 1
     6    3   42 1
     7    3    4 ar
     8    4    5 ar
     9    4   40 1
    10    5    6 ar
    11    5    7 1
    12    6   46 1
    13    7    8 am
    14    7   47 1
    15    8    9 2
    16    8   10 1
    17   10   11 1
    18   10   48 1
    19   10   49 1
    20   11   12 1
    21   11   50 1
    22   11   51 1
    23   12   13 1
    24   12   52 1
    25   12   53 1
    26   13   14 1
    27   13   54 1
    28   13   55 1
    29   14   15 1
    30   14   56 1
    31   14   57 1
    32   15   16 1
    33   15   58 1
    34   15   59 1
    35   16   17 2
    36   16   18 am
    37   18   19 1
    38   18   60 1
    39   19   20 1
    40   19   61 1
    41   19   62 1
    42   20   21 1
    43   20   27 1
    44   20   22 1
    45   22   23 1
    46   22   24 1
    47   22   39 1
    48   24   25 1
    49   24   26 1
    50   24   38 1
    51   26   27 1
    52   26   28 1
    53   26   63 1
    54   28   32 1
    55   28   29 1
    56   29   30 2
    57   29   64 1
    58   30   31 1
    59   31   36 ar
    60   31   32 ar
    61   32   33 ar
    62   33   34 ar
    63   34   35 ar
    64   34   65 1
    65   35   36 ar
    66   36   37 1
    67   37   66 1
    68   37   67 1
    69   38   68 1
    70   39   69 1
    71   40   41 1
    72   40   70 1
    73   40   71 1
    74   41   42 am
    75   41   72 1
    76   42   43 2
@<TRIPOS>MOLECULE
CHEMBL471847
   47    50     0     0     0
SMALL
USER_CHARGES

@<TRIPOS>ATOM
      1 C1         -0.0040    1.7929    0.0439 C.3       1 <0>        -0.1754
      2 C2         -0.0911    0.2654    0.0316 C.3       1 <0>         0.1131
      3 C3          0.6438   -0.2890   -1.1639 C.ar      1 <0>        -0.0669
      4 C4          0.6905    0.0834   -2.4932 C.ar      1 <0>        -0.0772
      5 C5          1.4864   -0.6532   -3.3713 C.ar      1 <0>         0.2292
      6 N1          2.1865   -1.6941   -2.9352 N.ar      1 <0>        -0.4568
      7 C6          2.1582   -2.0684   -1.6728 C.ar      1 <0>         0.1658
      8 C7          1.3905   -1.3832   -0.7493 C.ar      1 <0>        -0.1713
      9 C8          1.1628   -1.5741    0.7316 C.3       1 <0>         0.1193
     10 N2          0.5950   -0.2958    1.2183 N.4       1 <0>        -0.5069
     11 C9          0.1737   -2.7165    0.9710 C.3       1 <0>        -0.1743
     12 C10         2.4889   -1.8656    1.4368 C.3       1 <0>        -0.1735
     13 C11         1.5505   -0.2719   -4.7996 C.2       1 <0>         0.2997
     14 N3          2.2870   -0.9167   -5.7540 N.pl3     1 <0>        -0.5698
     15 H1          2.8522   -1.6934   -5.6192 H         1 <0>         0.4345
     16 C12         2.0739   -0.2535   -6.9465 C.ar      1 <0>         0.0547
     17 C13         2.5365   -0.4332   -8.2423 C.ar      1 <0>        -0.0810
     18 C14         2.1304    0.4202   -9.2494 C.ar      1 <0>        -0.0967
     19 C15         1.2605    1.4620   -8.9836 C.ar      1 <0>        -0.0808
     20 C16         0.7799    1.6659   -7.6930 C.ar      1 <0>        -0.0829
     21 C17         1.1885    0.7993   -6.6550 C.ar      1 <0>         0.0978
     22 N4          0.9047    0.7324   -5.3428 N.2       1 <0>        -0.4305
     23 C18        -0.1474    2.7765   -7.4121 C.2       1 <0>         0.5606
     24 O1         -0.5640    2.9499   -6.2829 O.2       1 <0>        -0.5182
     25 N5         -0.5335    3.5999   -8.4067 N.am      1 <0>        -0.8512
     26 C19        -1.5547   -0.1797    0.0076 C.3       1 <0>        -0.1741
     27 H2          1.0426    2.0973    0.0279 H         1 <0>         0.0854
     28 H3         -0.5121    2.1928   -0.8336 H         1 <0>         0.1136
     29 H4         -0.4803    2.1768    0.9460 H         1 <0>         0.0923
     30 H5          0.1206    0.9299   -2.8469 H         1 <0>         0.1696
     31 H6          2.7409   -2.9205   -1.3554 H         1 <0>         0.1774
     32 H7          1.3299    0.3227    1.5273 H         1 <0>         0.4333
     33 H8          0.6275   -3.6597    0.6668 H         1 <0>         0.1107
     34 H9         -0.0810   -2.7607    2.0300 H         1 <0>         0.0918
     35 H10        -0.7301   -2.5431    0.3869 H         1 <0>         0.0871
     36 H11         3.1811   -1.0415    1.2642 H         1 <0>         0.0846
     37 H12         2.3147   -1.9756    2.5072 H         1 <0>         0.0912
     38 H13         2.9156   -2.7874    1.0415 H         1 <0>         0.1100
     39 H14         3.2165   -1.2425   -8.4638 H         1 <0>         0.1364
     40 H15         2.4961    0.2726  -10.2549 H         1 <0>         0.1468
     41 H16         0.9525    2.1214   -9.7816 H         1 <0>         0.1413
     42 H17        -0.2012    3.4616   -9.3075 H         1 <0>         0.4010
     43 H18        -1.1438    4.3308   -8.2219 H         1 <0>         0.4081
     44 H19        -2.0726    0.3187   -0.8118 H         1 <0>         0.1131
     45 H20        -1.6039   -1.2593   -0.1346 H         1 <0>         0.0877
     46 H21        -2.0303    0.0844    0.9521 H         1 <0>         0.0934
     47 H22        -0.0654   -0.4627    1.9626 H         1 <0>         0.4381
@<TRIPOS>BOND
     1    1    2 1
     2    1   27 1
     3    1   28 1
     4    1   29 1
     5    2   10 1
     6    2    3 1
     7    2   26 1
     8    3    8 ar
     9    3    4 ar
    10    4    5 ar
    11    4   30 1
    12    5    6 ar
    13    5   13 1
    14    6    7 ar
    15    7    8 ar
    16    7   31 1
    17    8    9 1
    18    9   10 1
    19    9   11 1
    20    9   12 1
    21   10   32 1
    22   10   47 1
    23   11   33 1
    24   11   34 1
    25   11   35 1
    26   12   36 1
    27   12   37 1
    28   12   38 1
    29   13   22 2
    30   13   14 1
    31   14   15 1
    32   14   16 1
    33   16   21 ar
    34   16   17 ar
    35   17   18 ar
    36   17   39 1
    37   18   19 ar
    38   18   40 1
    39   19   20 ar
    40   19   41 1
    41   20   21 ar
    42   20   23 1
    43   21   22 1
    44   23   24 2
    45   23   25 am
    46   25   42 1
    47   25   43 1
    48   26   44 1
    49   26   45 1
    50   26   46 1
@<TRIPOS>MOLECULE
CHEMBL471640
   48    51     0     0     0
SMALL
USER_CHARGES

@<TRIPOS>ATOM
      1 C1         -0.0060    1.7810    0.0510 C.3       1 <0>        -0.1728
      2 C2         -0.0875    0.2532    0.0414 C.3       1 <0>         0.1118
      3 C3          0.6483   -0.3017   -1.1577 C.ar      1 <0>        -0.1087
      4 C4          0.6742    0.0937   -2.4832 C.ar      1 <0>        -0.0666
      5 C5          1.4425   -0.5954   -3.3983 C.ar      1 <0>        -0.0825
      6 C6          2.1961   -1.6951   -2.9848 C.ar      1 <0>         0.0099
      7 C7          2.1665   -2.0898   -1.6468 C.ar      1 <0>        -0.0272
      8 C8          1.3944   -1.3928   -0.7410 C.ar      1 <0>        -0.1143
      9 C9          1.1678   -1.5825    0.7420 C.3       1 <0>         0.1139
     10 N1          0.6026   -0.3032    1.2271 N.4       1 <0>        -0.5067
     11 C10         0.1774   -2.7233    0.9836 C.3       1 <0>        -0.1740
     12 C11         2.4943   -1.8750    1.4461 C.3       1 <0>        -0.1746
     13 C12         3.0216   -2.4388   -3.9604 C.2       1 <0>         0.2999
     14 N2          3.1299   -2.1394   -5.2901 N.pl3     1 <0>        -0.5886
     15 H1          2.6864   -1.4131   -5.7557 H         1 <0>         0.4265
     16 C13         3.9910   -3.0670   -5.8453 C.ar      1 <0>         0.0507
     17 C14         4.4815   -3.2765   -7.1257 C.ar      1 <0>        -0.0816
     18 C15         5.3532   -4.3192   -7.3740 C.ar      1 <0>        -0.0998
     19 C16         5.7482   -5.1661   -6.3550 C.ar      1 <0>        -0.0814
     20 C17         5.2719   -4.9792   -5.0598 C.ar      1 <0>        -0.0856
     21 C18         4.3804   -3.9163   -4.7948 C.ar      1 <0>         0.0999
     22 N3          3.7658   -3.4828   -3.6800 N.2       1 <0>        -0.4394
     23 C19         5.6937   -5.8832   -3.9753 C.2       1 <0>         0.5601
     24 O1          5.2746   -5.7152   -2.8461 O.2       1 <0>        -0.5178
     25 N4          6.5440   -6.8962   -4.2348 N.am      1 <0>        -0.8516
     26 C20        -1.5496   -0.1972    0.0213 C.3       1 <0>        -0.1733
     27 H2          1.0394    2.0891    0.0326 H         1 <0>         0.0843
     28 H3         -0.5172    2.1776   -0.8261 H         1 <0>         0.1076
     29 H4         -0.4820    2.1645    0.9535 H         1 <0>         0.0880
     30 H5          0.0906    0.9445   -2.8026 H         1 <0>         0.1446
     31 H6          1.4606   -0.2849   -4.4325 H         1 <0>         0.1402
     32 H7          2.7471   -2.9401   -1.3209 H         1 <0>         0.1562
     33 H8          1.3387    0.3163    1.5311 H         1 <0>         0.4319
     34 H9          0.6302   -3.6677    0.6817 H         1 <0>         0.1109
     35 H10        -0.0778   -2.7648    2.0425 H         1 <0>         0.0891
     36 H11        -0.7260   -2.5502    0.3987 H         1 <0>         0.0869
     37 H12         3.1873   -1.0518    1.2721 H         1 <0>         0.0840
     38 H13         2.3211   -1.9840    2.5167 H         1 <0>         0.0886
     39 H14         2.9196   -2.7976    1.0511 H         1 <0>         0.1113
     40 H15         4.1809   -2.6227   -7.9310 H         1 <0>         0.1347
     41 H16         5.7296   -4.4746   -8.3743 H         1 <0>         0.1457
     42 H17         6.4297   -5.9773   -6.5647 H         1 <0>         0.1404
     43 H18         6.8783   -7.0301   -5.1354 H         1 <0>         0.4008
     44 H19         6.8217   -7.4912   -3.5208 H         1 <0>         0.4079
     45 H20        -2.0717    0.3001   -0.7962 H         1 <0>         0.1084
     46 H21        -1.5952   -1.2768   -0.1219 H         1 <0>         0.0882
     47 H22        -2.0234    0.0642    0.9674 H         1 <0>         0.0886
     48 H23        -0.0550   -0.4676    1.9745 H         1 <0>         0.4356
@<TRIPOS>BOND
     1    1    2 1
     2    1   27 1
     3    1   28 1
     4    1   29 1
     5    2   10 1
     6    2    3 1
     7    2   26 1
     8    3    8 ar
     9    3    4 ar
    10    4    5 ar
    11    4   30 1
    12    5    6 ar
    13    5   31 1
    14    6    7 ar
    15    6   13 1
    16    7    8 ar
    17    7   32 1
    18    8    9 1
    19    9   10 1
    20    9   11 1
    21    9   12 1
    22   10   33 1
    23   10   48 1
    24   11   34 1
    25   11   35 1
    26   11   36 1
    27   12   37 1
    28   12   38 1
    29   12   39 1
    30   13   22 2
    31   13   14 1
    32   14   15 1
    33   14   16 1
    34   16   21 ar
    35   16   17 ar
    36   17   18 ar
    37   17   40 1
    38   18   19 ar
    39   18   41 1
    40   19   20 ar
    41   19   42 1
    42   20   21 ar
    43   20   23 1
    44   21   22 1
    45   23   24 2
    46   23   25 am
    47   25   43 1
    48   25   44 1
    49   26   45 1
    50   26   46 1
    51   26   47 1
@<TRIPOS>MOLECULE
CHEMBL472472
   45    48     0     0     0
SMALL
USER_CHARGES

@<TRIPOS>ATOM
      1 C1         -0.0091    1.7389    0.0639 C.3       1 <0>        -0.1734
      2 C2         -0.0737    0.2103    0.0636 C.3       1 <0>         0.1300
      3 C3          0.6649   -0.3477   -1.1536 C.2       1 <0>        -0.1397
      4 C4          0.7575   -0.0377   -2.5117 C.2       1 <0>        -0.0691
      5 C5          1.5751   -0.8421   -3.2774 C.2       1 <0>        -0.1094
      6 S1          2.1831   -2.0014   -2.0682 S.3       1 <0>         0.3469
      7 C6          1.3913   -1.4096   -0.7186 C.2       1 <0>        -0.2975
      8 C7          1.1907   -1.6075    0.7589 C.3       1 <0>         0.1677
      9 N1          0.6260   -0.3288    1.2484 N.4       1 <0>        -0.5051
     10 C8          0.2089   -2.7532    1.0125 C.3       1 <0>        -0.1759
     11 C9          2.5293   -1.8928    1.4427 C.3       1 <0>        -0.1762
     12 C10         1.8679   -0.7643   -4.7149 C.2       1 <0>         0.3416
     13 N2          2.6949   -1.6153   -5.3997 N.pl3     1 <0>        -0.5922
     14 H1          3.1851   -2.3659   -5.0294 H         1 <0>         0.4264
     15 C11         2.6975   -1.2013   -6.7200 C.ar      1 <0>         0.0555
     16 C12         3.3299   -1.6564   -7.8662 C.ar      1 <0>        -0.0822
     17 C13         3.1277   -1.0147   -9.0740 C.ar      1 <0>        -0.0969
     18 C14         2.2961    0.0857   -9.1571 C.ar      1 <0>        -0.0807
     19 C15         1.6476    0.5655   -8.0209 C.ar      1 <0>        -0.0828
     20 C16         1.8466   -0.0834   -6.7820 C.ar      1 <0>         0.1008
     21 N3          1.3713    0.1301   -5.5429 N.2       1 <0>        -0.4255
     22 C17         0.7622    1.7391   -8.1109 C.2       1 <0>         0.5588
     23 O1          0.1987    2.1535   -7.1160 O.2       1 <0>        -0.5154
     24 N4          0.5765    2.3538   -9.2959 N.am      1 <0>        -0.8514
     25 C18        -1.5313   -0.2547    0.0557 C.3       1 <0>        -0.1730
     26 H2          1.0328    2.0585    0.0397 H         1 <0>         0.0837
     27 H3         -0.5279    2.1247   -0.8137 H         1 <0>         0.1102
     28 H4         -0.4860    2.1225    0.9658 H         1 <0>         0.0875
     29 H5          0.2151    0.7913   -2.9418 H         1 <0>         0.1661
     30 H6          1.3620    0.2959    1.5416 H         1 <0>         0.4332
     31 H7          0.6612   -3.6948    0.7014 H         1 <0>         0.1095
     32 H8         -0.0301   -2.7983    2.0751 H         1 <0>         0.0932
     33 H9         -0.7039   -2.5825    0.4418 H         1 <0>         0.0906
     34 H10         3.2132   -1.0634    1.2630 H         1 <0>         0.0862
     35 H11         2.3721   -2.0083    2.5151 H         1 <0>         0.0934
     36 H12         2.9561   -2.8102    1.0373 H         1 <0>         0.1076
     37 H13         3.9832   -2.5150   -7.8157 H         1 <0>         0.1359
     38 H14         3.6251   -1.3770   -9.9616 H         1 <0>         0.1468
     39 H15         2.1483    0.5767  -10.1076 H         1 <0>         0.1415
     40 H16         1.0259    2.0233  -10.0894 H         1 <0>         0.4006
     41 H17        -0.0066    3.1267   -9.3552 H         1 <0>         0.4083
     42 H18        -2.0654    0.2376   -0.7570 H         1 <0>         0.1106
     43 H19        -1.5674   -1.3347   -0.0874 H         1 <0>         0.0869
     44 H20        -1.9996    0.0017    1.0060 H         1 <0>         0.0885
     45 H21        -0.0249   -0.4928    2.0017 H         1 <0>         0.4384
@<TRIPOS>BOND
     1    1    2 1
     2    1   26 1
     3    1   27 1
     4    1   28 1
     5    2    9 1
     6    2    3 1
     7    2   25 1
     8    3    7 2
     9    3    4 1
    10    4    5 2
    11    4   29 1
    12    5    6 1
    13    5   12 1
    14    6    7 1
    15    7    8 1
    16    8    9 1
    17    8   10 1
    18    8   11 1
    19    9   30 1
    20    9   45 1
    21   10   31 1
    22   10   32 1
    23   10   33 1
    24   11   34 1
    25   11   35 1
    26   11   36 1
    27   12   21 2
    28   12   13 1
    29   13   14 1
    30   13   15 1
    31   15   20 ar
    32   15   16 ar
    33   16   17 ar
    34   16   37 1
    35   17   18 ar
    36   17   38 1
    37   18   19 ar
    38   18   39 1
    39   19   20 ar
    40   19   22 1
    41   20   21 1
    42   22   23 2
    43   22   24 am
    44   24   40 1
    45   24   41 1
    46   25   42 1
    47   25   43 1
    48   25   44 1
@<TRIPOS>MOLECULE
CHEMBL472471
   60    63     0     0     0
SMALL
USER_CHARGES

@<TRIPOS>ATOM
      1 C1          0.0020    1.7993    0.0367 C.3       1 <0>        -0.1718
      2 C2         -0.0928    0.2723    0.0226 C.3       1 <0>         0.0848
      3 C3          0.6483   -0.2871   -1.1697 C.2       1 <0>        -0.1166
      4 C4          1.3605   -1.3204   -0.7951 C.2       1 <0>        -0.1363
      5 C5          1.1668   -1.5553    0.6851 C.3       1 <0>         0.1030
      6 N1          0.5886   -0.2955    1.2102 N.4       1 <0>        -0.5110
      7 C6          0.2000   -2.7185    0.9151 C.3       1 <0>        -0.1751
      8 C7          2.5114   -1.8416    1.3567 C.3       1 <0>        -0.1763
      9 C8          2.2373   -2.1471   -1.7000 C.3       1 <0>         0.1119
     10 O1          2.1719   -1.6288   -3.0301 O.3       1 <0>        -0.2977
     11 C9          2.9105   -2.2648   -3.9769 C.ar      1 <0>         0.1090
     12 C10         3.6770   -3.3686   -3.6312 C.ar      1 <0>        -0.1686
     13 C11         4.4280   -4.0173   -4.5883 C.ar      1 <0>        -0.0975
     14 C12         4.4184   -3.5639   -5.9090 C.ar      1 <0>        -0.0134
     15 C13         3.6467   -2.4533   -6.2572 C.ar      1 <0>        -0.1209
     16 C14         2.8919   -1.8107   -5.2941 C.ar      1 <0>         0.1116
     17 O2          2.1356   -0.7317   -5.6309 O.3       1 <0>        -0.3065
     18 C15         2.1641   -0.3212   -6.9994 C.3       1 <0>         0.0207
     19 C16         5.2234   -4.2573   -6.9356 C.2       1 <0>         0.3218
     20 N2          6.0099   -5.3536   -6.7117 N.pl3     1 <0>        -0.5921
     21 H1          6.1377   -5.8085   -5.8646 H         1 <0>         0.4248
     22 C17         6.5884   -5.6907   -7.9214 C.ar      1 <0>         0.0435
     23 C18         7.4633   -6.6891   -8.3221 C.ar      1 <0>        -0.0803
     24 C19         7.8710   -6.7685   -9.6401 C.ar      1 <0>        -0.1073
     25 C20         7.4155   -5.8579  -10.5751 C.ar      1 <0>        -0.0831
     26 C21         6.5365   -4.8444  -10.2006 C.ar      1 <0>        -0.0889
     27 C22         6.1127   -4.7547   -8.8564 C.ar      1 <0>         0.1043
     28 N3          5.2879   -3.9179   -8.2024 N.2       1 <0>        -0.4500
     29 C23         6.0521   -3.8748  -11.1986 C.2       1 <0>         0.5589
     30 O3          5.2847   -2.9919  -10.8660 O.2       1 <0>        -0.5148
     31 N4          6.4595   -3.9662  -12.4801 N.am      1 <0>        -0.8534
     32 C24        -1.5581   -0.1667   -0.0081 C.3       1 <0>        -0.1727
     33 H2          1.0500    2.0984    0.0230 H         1 <0>         0.0837
     34 H3         -0.5026    2.2028   -0.8411 H         1 <0>         0.1100
     35 H4         -0.4740    2.1845    0.9385 H         1 <0>         0.0855
     36 H5          0.5984    0.1045   -2.1749 H         1 <0>         0.1831
     37 H6          1.3161    0.3237    1.5348 H         1 <0>         0.4320
     38 H7          0.6592   -3.6458    0.5725 H         1 <0>         0.1085
     39 H8         -0.0277   -2.7970    1.9782 H         1 <0>         0.0897
     40 H9         -0.7203   -2.5416    0.3585 H         1 <0>         0.0887
     41 H10         3.1855   -1.0008    1.1932 H         1 <0>         0.0853
     42 H11         2.3602   -1.9833    2.4268 H         1 <0>         0.0897
     43 H12         2.9464   -2.7446    0.9285 H         1 <0>         0.1072
     44 H13         3.2669   -2.1066   -1.3444 H         1 <0>         0.0883
     45 H14         1.8918   -3.1809   -1.6954 H         1 <0>         0.0890
     46 H15         3.6856   -3.7202   -2.6101 H         1 <0>         0.1407
     47 H16         5.0241   -4.8759   -4.3165 H         1 <0>         0.1298
     48 H17         3.6368   -2.0997   -7.2776 H         1 <0>         0.1600
     49 H18         1.5195    0.5478   -7.1315 H         1 <0>         0.1059
     50 H19         3.1851   -0.0622   -7.2798 H         1 <0>         0.0627
     51 H20         1.8095   -1.1359   -7.6306 H         1 <0>         0.0628
     52 H21         7.8275   -7.4068   -7.6018 H         1 <0>         0.1318
     53 H22         8.5526   -7.5496   -9.9427 H         1 <0>         0.1427
     54 H23         7.7433   -5.9325  -11.6015 H         1 <0>         0.1379
     55 H24         7.0716   -4.6704  -12.7454 H         1 <0>         0.3997
     56 H25         6.1406   -3.3278  -13.1371 H         1 <0>         0.4067
     57 H26        -2.0696    0.3316   -0.8316 H         1 <0>         0.1108
     58 H27        -1.6111   -1.2465   -0.1477 H         1 <0>         0.0860
     59 H28        -2.0377    0.1019    0.9332 H         1 <0>         0.0871
     60 H29        -0.0752   -0.4863    1.9458 H         1 <0>         0.4350
@<TRIPOS>BOND
     1    1    2 1
     2    1   33 1
     3    1   34 1
     4    1   35 1
     5    2    6 1
     6    2    3 1
     7    2   32 1
     8    3    4 2
     9    3   36 1
    10    4    5 1
    11    4    9 1
    12    5    6 1
    13    5    7 1
    14    5    8 1
    15    6   37 1
    16    6   60 1
    17    7   38 1
    18    7   39 1
    19    7   40 1
    20    8   41 1
    21    8   42 1
    22    8   43 1
    23    9   10 1
    24    9   44 1
    25    9   45 1
    26   10   11 1
    27   11   16 ar
    28   11   12 ar
    29   12   13 ar
    30   12   46 1
    31   13   14 ar
    32   13   47 1
    33   14   15 ar
    34   14   19 1
    35   15   16 ar
    36   15   48 1
    37   16   17 1
    38   17   18 1
    39   18   49 1
    40   18   50 1
    41   18   51 1
    42   19   28 2
    43   19   20 1
    44   20   21 1
    45   20   22 1
    46   22   27 ar
    47   22   23 ar
    48   23   24 ar
    49   23   52 1
    50   24   25 ar
    51   24   53 1
    52   25   26 ar
    53   25   54 1
    54   26   27 ar
    55   26   29 1
    56   27   28 1
    57   29   30 2
    58   29   31 am
    59   31   55 1
    60   31   56 1
    61   32   57 1
    62   32   58 1
    63   32   59 1
@<TRIPOS>MOLECULE
CHEMBL472471__1
   59    62     0     0     0
SMALL
USER_CHARGES

@<TRIPOS>ATOM
      1 C1          0.0018    1.7980    0.0377 C.3       1 <0>        -0.1489
      2 C2         -0.0924    0.2710    0.0239 C.3       1 <0>         0.1111
      3 C3          0.6485   -0.2884   -1.1685 C.2       1 <0>        -0.1422
      4 C4          1.3612   -1.3213   -0.7939 C.2       1 <0>        -0.1704
      5 C5          1.1680   -1.5560    0.6865 C.3       1 <0>         0.1325
      6 N1          0.5895   -0.2963    1.2115 N.3       1 <0>        -0.6384
      7 C6          0.2016   -2.7195    0.9170 C.3       1 <0>        -0.1316
      8 C7          2.5129   -1.8417    1.3577 C.3       1 <0>        -0.1528
      9 C8          2.2380   -2.1479   -1.6988 C.3       1 <0>         0.1160
     10 O1          2.1720   -1.6300   -3.0290 O.3       1 <0>        -0.2951
     11 C9          2.9105   -2.2659   -3.9760 C.ar      1 <0>         0.1254
     12 C10         3.6775   -3.3694   -3.6303 C.ar      1 <0>        -0.1747
     13 C11         4.4285   -4.0180   -4.5875 C.ar      1 <0>        -0.0928
     14 C12         4.4183   -3.5648   -5.9082 C.ar      1 <0>        -0.0331
     15 C13         3.6461   -2.4546   -6.2565 C.ar      1 <0>        -0.1198
     16 C14         2.8914   -1.8120   -5.2933 C.ar      1 <0>         0.1028
     17 O2          2.1346   -0.7334   -5.6300 O.3       1 <0>        -0.3029
     18 C15         2.1625   -0.3231   -6.9986 C.3       1 <0>         0.0225
     19 C16         5.2233   -4.2581   -6.9349 C.2       1 <0>         0.3370
     20 N2          6.0102   -5.3541   -6.7111 N.pl3     1 <0>        -0.5934
     21 H1          6.1384   -5.8088   -5.8639 H         1 <0>         0.4252
     22 C17         6.5884   -5.6913   -7.9209 C.ar      1 <0>         0.0396
     23 C18         7.4636   -6.6895   -8.3216 C.ar      1 <0>        -0.0783
     24 C19         7.8709   -6.7690   -9.6397 C.ar      1 <0>        -0.1136
     25 C20         7.4148   -5.8588  -10.5748 C.ar      1 <0>        -0.0847
     26 C21         6.5355   -4.8455  -10.2003 C.ar      1 <0>        -0.0920
     27 C22         6.1122   -4.7557   -8.8559 C.ar      1 <0>         0.1075
     28 N3          5.2872   -3.9190   -8.2018 N.2       1 <0>        -0.4570
     29 C23         6.0505   -3.8762  -11.1983 C.2       1 <0>         0.5583
     30 O3          5.2829   -2.9935  -10.8656 O.2       1 <0>        -0.5124
     31 N4          6.4575   -3.9677  -12.4799 N.am      1 <0>        -0.8552
     32 C24        -1.5576   -0.1685   -0.0062 C.3       1 <0>        -0.1291
     33 H2          1.0497    2.0975    0.0236 H         1 <0>         0.0557
     34 H3         -0.5032    2.2012   -0.8401 H         1 <0>         0.0667
     35 H4         -0.4741    2.1833    0.9396 H         1 <0>         0.0659
     36 H5          0.5982    0.1030   -2.1738 H         1 <0>         0.1405
     37 H6          1.3134    0.3234    1.5432 H         1 <0>         0.3404
     38 H7          0.6612   -3.6468    0.5748 H         1 <0>         0.0563
     39 H8         -0.0260   -2.7976    1.9801 H         1 <0>         0.0672
     40 H9         -0.7187   -2.5432    0.3603 H         1 <0>         0.0637
     41 H10         3.1780   -0.9898    1.2159 H         1 <0>         0.0575
     42 H11         2.3587   -2.0088    2.4237 H         1 <0>         0.0687
     43 H12         2.9601   -2.7300    0.9116 H         1 <0>         0.0635
     44 H13         3.2677   -2.1070   -1.3436 H         1 <0>         0.0749
     45 H14         1.8928   -3.1818   -1.6940 H         1 <0>         0.0753
     46 H15         3.6866   -3.7207   -2.6090 H         1 <0>         0.1426
     47 H16         5.0249   -4.8763   -4.3157 H         1 <0>         0.1266
     48 H17         3.6358   -2.1012   -7.2769 H         1 <0>         0.1565
     49 H18         3.1833   -0.0638   -7.2794 H         1 <0>         0.0596
     50 H19         1.8080   -1.1381   -7.6296 H         1 <0>         0.0598
     51 H20         1.5176    0.5456   -7.1307 H         1 <0>         0.1035
     52 H21         7.8282   -7.4069   -7.6013 H         1 <0>         0.1304
     53 H22         8.5527   -7.5500   -9.9423 H         1 <0>         0.1401
     54 H23         7.7423   -5.9334  -11.6012 H         1 <0>         0.1355
     55 H24         7.0698   -4.6718  -12.7452 H         1 <0>         0.3986
     56 H25         6.1382   -3.3296  -13.1369 H         1 <0>         0.4053
     57 H26        -2.0696    0.3297   -0.8295 H         1 <0>         0.0589
     58 H27        -1.6103   -1.2483   -0.1460 H         1 <0>         0.0607
     59 H28        -2.0369    0.0998    0.9353 H         1 <0>         0.0657
@<TRIPOS>BOND
     1    1    2 1
     2    1   33 1
     3    1   34 1
     4    1   35 1
     5    2    6 1
     6    2    3 1
     7    2   32 1
     8    3    4 2
     9    3   36 1
    10    4    5 1
    11    4    9 1
    12    5    6 1
    13    5    7 1
    14    5    8 1
    15    6   37 1
    16    7   38 1
    17    7   39 1
    18    7   40 1
    19    8   41 1
    20    8   42 1
    21    8   43 1
    22    9   10 1
    23    9   44 1
    24    9   45 1
    25   10   11 1
    26   11   16 ar
    27   11   12 ar
    28   12   13 ar
    29   12   46 1
    30   13   14 ar
    31   13   47 1
    32   14   15 ar
    33   14   19 1
    34   15   16 ar
    35   15   48 1
    36   16   17 1
    37   17   18 1
    38   18   49 1
    39   18   50 1
    40   18   51 1
    41   19   28 2
    42   19   20 1
    43   20   21 1
    44   20   22 1
    45   22   27 ar
    46   22   23 ar
    47   23   24 ar
    48   23   52 1
    49   24   25 ar
    50   24   53 1
    51   25   26 ar
    52   25   54 1
    53   26   27 ar
    54   26   29 1
    55   27   28 1
    56   29   30 2
    57   29   31 am
    58   31   55 1
    59   31   56 1
    60   32   57 1
    61   32   58 1
    62   32   59 1
@<TRIPOS>MOLECULE
CHEMBL605844
   77    81     0     0     0
SMALL
USER_CHARGES

@<TRIPOS>ATOM
      1 C1         -1.5510   -3.2069   -0.3922 C.3       1 <0>        -0.1254
      2 C2         -1.7809   -4.0470    0.8376 C.2       1 <0>        -0.0457
      3 C3         -2.4155   -5.2537    0.7528 C.2       1 <0>        -0.1523
      4 C4         -2.5969   -5.9875    1.9449 C.2       1 <0>         0.4823
      5 O1         -3.1576   -7.0715    1.9227 O.2       1 <0>        -0.5244
      6 N1         -2.1443   -5.4793    3.1071 N.am      1 <0>        -0.4490
      7 H1         -2.2700   -5.9852    3.9251 H         1 <0>         0.4406
      8 N2         -1.5504   -4.3423    3.1594 N.2       1 <0>        -0.2134
      9 C5         -1.3428   -3.6118    2.0993 C.2       1 <0>         0.0666
     10 C6         -0.6330   -2.2888    2.2295 C.3       1 <0>        -0.0126
     11 C7         -0.2687   -2.0541    3.6728 C.ar      1 <0>        -0.0818
     12 C8         -1.1577   -1.4039    4.5119 C.ar      1 <0>        -0.0476
     13 C9         -0.8332   -1.1838    5.8371 C.ar      1 <0>        -0.1499
     14 C10         0.3842   -1.6131    6.3341 C.ar      1 <0>         0.1480
     15 C11         1.2855   -2.2706    5.4912 C.ar      1 <0>        -0.1718
     16 C12         0.9462   -2.4925    4.1547 C.ar      1 <0>        -0.0503
     17 C13         2.5879   -2.7322    6.0128 C.2       1 <0>         0.5729
     18 O2          2.6320   -3.4254    7.0105 O.2       1 <0>        -0.5075
     19 N3          3.7275   -2.3850    5.3826 N.am      1 <0>        -0.6120
     20 C14         3.6994   -1.4565    4.2437 C.3       1 <0>         0.0875
     21 C15         4.6461   -0.2871    4.5414 C.3       1 <0>         0.0953
     22 N4          5.9391   -0.8298    4.9810 N.am      1 <0>        -0.6042
     23 C16         5.9672   -1.7583    6.1199 C.3       1 <0>         0.0629
     24 C17         5.0212   -2.9234    5.8257 C.3       1 <0>         0.0981
     25 C18         7.0788   -0.4826    4.3508 C.2       1 <0>         0.5103
     26 O3          7.0532    0.3425    3.4623 O.2       1 <0>        -0.4737
     27 C19         8.3848   -1.1196    4.7502 C.3       1 <0>         0.0399
     28 C20         9.5086   -0.5768    3.8652 C.3       1 <0>        -0.1173
     29 C21         9.2082   -0.9042    2.4011 C.3       1 <0>        -0.1290
     30 C22         9.1099   -2.4211    2.2276 C.3       1 <0>        -0.1299
     31 C23         7.9860   -2.9639    3.1126 C.3       1 <0>        -0.1165
     32 C24         8.2865   -2.6365    4.5766 C.3       1 <0>        -0.1506
     33 N5          8.6733   -0.8052    6.1559 N.4       1 <0>        -0.5075
     34 C25         8.6687    0.6518    6.3427 C.3       1 <0>         0.0178
     35 C26         8.9692    0.9792    7.8067 C.3       1 <0>        -0.2147
     36 C27         7.8752    1.6831    8.6121 C.3       1 <0>        -0.1669
     37 C28         9.1252    2.4540    8.1832 C.3       1 <0>        -0.1451
     38 F1          0.7015   -1.3974    7.6295 F         1 <0>        -0.1253
     39 C29        -2.9062   -5.7838   -0.5698 C.3       1 <0>        -0.1023
     40 H2         -0.5936   -3.4729   -0.8402 H         1 <0>         0.0876
     41 H3         -2.3509   -3.3875   -1.1103 H         1 <0>         0.0843
     42 H4         -1.5423   -2.1526   -0.1155 H         1 <0>         0.0806
     43 H5          0.2729   -2.3014    1.6235 H         1 <0>         0.1027
     44 H6         -1.2891   -1.4892    1.8857 H         1 <0>         0.1069
     45 H7         -2.1095   -1.0668    4.1287 H         1 <0>         0.1405
     46 H8         -1.5312   -0.6754    6.4857 H         1 <0>         0.1466
     47 H9          1.6360   -3.0029    3.4990 H         1 <0>         0.1348
     48 H10         4.0286   -1.9733    3.3422 H         1 <0>         0.0836
     49 H11         2.6861   -1.0803    4.1033 H         1 <0>         0.1135
     50 H12         4.7869    0.3083    3.6393 H         1 <0>         0.1177
     51 H13         4.2228    0.3344    5.3305 H         1 <0>         0.0882
     52 H14         6.9805   -2.1345    6.2602 H         1 <0>         0.0837
     53 H15         5.6380   -1.2415    7.0214 H         1 <0>         0.1013
     54 H16         4.8806   -3.5156    6.7299 H         1 <0>         0.1185
     55 H17         5.4466   -3.5470    5.0395 H         1 <0>         0.0834
     56 H18         9.5787    0.5039    3.9888 H         1 <0>         0.0944
     57 H19        10.4533   -1.0375    4.1540 H         1 <0>         0.0965
     58 H20         8.2635   -0.4435    2.1123 H         1 <0>         0.0971
     59 H21        10.0088   -0.5175    1.7706 H         1 <0>         0.0868
     60 H22         8.8958   -2.6544    1.1846 H         1 <0>         0.0816
     61 H23        10.0545   -2.8819    2.5164 H         1 <0>         0.0721
     62 H24         7.0414   -2.5032    2.8237 H         1 <0>         0.0710
     63 H25         7.9160   -4.0446    2.9889 H         1 <0>         0.0915
     64 H26         9.2311   -3.0973    4.8655 H         1 <0>         0.1062
     65 H27         7.4858   -3.0232    5.2071 H         1 <0>         0.0979
     66 H28         7.9684   -1.2221    6.7452 H         1 <0>         0.4217
     67 H29         9.4302    1.1022    5.7060 H         1 <0>         0.1421
     68 H30         7.6897    1.0494    6.0750 H         1 <0>         0.1275
     69 H31         9.5949    0.2570    8.3311 H         1 <0>         0.1291
     70 H32         6.9414    1.9129    8.0990 H         1 <0>         0.1046
     71 H33         7.7809    1.4239    9.6666 H         1 <0>         0.1128
     72 H34         9.8533    2.7019    8.9555 H         1 <0>         0.1151
     73 H35         9.0138    3.1909    7.3878 H         1 <0>         0.1084
     74 H36        -2.1203   -6.3766   -1.0378 H         1 <0>         0.0803
     75 H37        -3.7847   -6.4083   -0.4075 H         1 <0>         0.0804
     76 H38        -3.1686   -4.9498   -1.2207 H         1 <0>         0.0799
     77 H39         9.5795   -1.1732    6.4037 H         1 <0>         0.4335
@<TRIPOS>BOND
     1    1    2 1
     2    1   40 1
     3    1   41 1
     4    1   42 1
     5    2    9 1
     6    2    3 2
     7    3    4 1
     8    3   39 1
     9    4    5 2
    10    4    6 am
    11    6    7 1
    12    6    8 1
    13    8    9 2
    14    9   10 1
    15   10   11 1
    16   10   43 1
    17   10   44 1
    18   11   16 ar
    19   11   12 ar
    20   12   13 ar
    21   12   45 1
    22   13   14 ar
    23   13   46 1
    24   14   15 ar
    25   14   38 1
    26   15   16 ar
    27   15   17 1
    28   16   47 1
    29   17   18 2
    30   17   19 am
    31   19   24 1
    32   19   20 1
    33   20   21 1
    34   20   48 1
    35   20   49 1
    36   21   22 1
    37   21   50 1
    38   21   51 1
    39   22   23 1
    40   22   25 am
    41   23   24 1
    42   23   52 1
    43   23   53 1
    44   24   54 1
    45   24   55 1
    46   25   26 2
    47   25   27 1
    48   27   32 1
    49   27   28 1
    50   27   33 1
    51   28   29 1
    52   28   56 1
    53   28   57 1
    54   29   30 1
    55   29   58 1
    56   29   59 1
    57   30   31 1
    58   30   60 1
    59   30   61 1
    60   31   32 1
    61   31   62 1
    62   31   63 1
    63   32   64 1
    64   32   65 1
    65   33   34 1
    66   33   66 1
    67   33   77 1
    68   34   35 1
    69   34   67 1
    70   34   68 1
    71   35   37 1
    72   35   36 1
    73   35   69 1
    74   36   37 1
    75   36   70 1
    76   36   71 1
    77   37   72 1
    78   37   73 1
    79   39   74 1
    80   39   75 1
    81   39   76 1
@<TRIPOS>MOLECULE
CHEMBL605844__1
   76    80     0     0     0
SMALL
USER_CHARGES

@<TRIPOS>ATOM
      1 C1         -1.5427   -3.2468   -0.3280 C.3       1 <0>        -0.1257
      2 C2         -1.7597   -4.0871    0.9040 C.2       1 <0>        -0.0422
      3 C3         -2.3901   -5.2963    0.8249 C.2       1 <0>        -0.1572
      4 C4         -2.5594   -6.0301    2.0189 C.2       1 <0>         0.4828
      5 O1         -3.1159   -7.1163    2.0016 O.2       1 <0>        -0.5294
      6 N1         -2.1000   -5.5192    3.1772 N.am      1 <0>        -0.4484
      7 H1         -2.2173   -6.0250    3.9965 H         1 <0>         0.4404
      8 N2         -1.5102   -4.3798    3.2242 N.2       1 <0>        -0.2107
      9 C5         -1.3137   -3.6492    2.1620 C.2       1 <0>         0.0683
     10 C6         -0.6083   -2.3233    2.2859 C.3       1 <0>        -0.0124
     11 C7         -0.2339   -2.0861    3.7263 C.ar      1 <0>        -0.0858
     12 C8         -1.1191   -1.4389    4.5717 C.ar      1 <0>        -0.0525
     13 C9         -0.7853   -1.2166    5.8943 C.ar      1 <0>        -0.1526
     14 C10         0.4376   -1.6406    6.3822 C.ar      1 <0>         0.1473
     15 C11         1.3351   -2.2950    5.5328 C.ar      1 <0>        -0.1634
     16 C12         0.9864   -2.5192    4.1991 C.ar      1 <0>        -0.0485
     17 C13         2.6433   -2.7510    6.0447 C.2       1 <0>         0.5671
     18 O2          2.6978   -3.4429    7.0428 O.2       1 <0>        -0.5166
     19 N3          3.7766   -2.4001    5.4052 N.am      1 <0>        -0.6059
     20 C14         3.7358   -1.4740    4.2648 C.3       1 <0>         0.0905
     21 C15         4.6796   -0.2999    4.5531 C.3       1 <0>         0.0955
     22 N4          5.9783   -0.8362    4.9840 N.am      1 <0>        -0.6119
     23 C16         6.0190   -1.7623    6.1243 C.3       1 <0>         0.0698
     24 C17         5.0759   -2.9320    5.8396 C.3       1 <0>         0.0973
     25 C18         7.1116   -0.4852    4.3445 C.2       1 <0>         0.4990
     26 O3          7.0754    0.3362    3.4530 O.2       1 <0>        -0.5244
     27 C19         8.4239   -1.1136    4.7372 C.3       1 <0>         0.1056
     28 C20         9.5407   -0.5583    3.8510 C.3       1 <0>        -0.0874
     29 C21         9.2382   -0.8820    2.3865 C.3       1 <0>        -0.1329
     30 C22         9.1513   -2.3990    2.2070 C.3       1 <0>        -0.1203
     31 C23         8.0345   -2.9542    3.0932 C.3       1 <0>        -0.1182
     32 C24         8.3369   -2.6305    4.5577 C.3       1 <0>        -0.1233
     33 N5          8.7142   -0.8028    6.1433 N.3       1 <0>        -0.6707
     34 C25         8.6769    0.6465    6.3806 C.3       1 <0>         0.0835
     35 C26         9.1020    0.9385    7.8211 C.3       1 <0>        -0.1515
     36 C27         8.0430    1.5046    8.7692 C.3       1 <0>        -0.1835
     37 C28         9.1685    2.4042    8.2547 C.3       1 <0>        -0.1739
     38 F1          0.7640   -1.4228    7.6749 F         1 <0>        -0.1249
     39 C29        -2.8888   -5.8293   -0.4935 C.3       1 <0>        -0.1002
     40 H2         -0.5877   -3.5093   -0.7832 H         1 <0>         0.0885
     41 H3         -2.3474   -3.4311   -1.0399 H         1 <0>         0.0830
     42 H4         -1.5361   -2.1923   -0.0522 H         1 <0>         0.0813
     43 H5          0.2930   -2.3326    1.6730 H         1 <0>         0.1034
     44 H6         -1.2702   -1.5265    1.9466 H         1 <0>         0.1057
     45 H7         -2.0752   -1.1059    4.1957 H         1 <0>         0.1375
     46 H8         -1.4803   -0.7105    6.5479 H         1 <0>         0.1440
     47 H9          1.6732   -3.0273    3.5384 H         1 <0>         0.1350
     48 H10         4.0604   -1.9910    3.3618 H         1 <0>         0.0789
     49 H11         2.7199   -1.1024    4.1314 H         1 <0>         0.1026
     50 H12         4.8110    0.2944    3.6488 H         1 <0>         0.1077
     51 H13         4.2597    0.3213    5.3442 H         1 <0>         0.0723
     52 H14         7.0350   -2.1339    6.2577 H         1 <0>         0.1157
     53 H15         5.6945   -1.2453    7.0273 H         1 <0>         0.0791
     54 H16         4.9447   -3.5231    6.7459 H         1 <0>         0.1099
     55 H17         5.4981   -3.5553    5.0513 H         1 <0>         0.0789
     56 H18         9.6026    0.5224    3.9789 H         1 <0>         0.0680
     57 H19        10.4898   -1.0128    4.1351 H         1 <0>         0.0777
     58 H20         8.2891   -0.4276    2.1025 H         1 <0>         0.0876
     59 H21        10.0339   -0.4864    1.7552 H         1 <0>         0.0635
     60 H22         8.9359   -2.6296    1.1637 H         1 <0>         0.0625
     61 H23        10.1004   -2.8534    2.4911 H         1 <0>         0.0635
     62 H24         7.0854   -2.4998    2.8091 H         1 <0>         0.0580
     63 H25         7.9726   -4.0349    2.9653 H         1 <0>         0.0695
     64 H26         9.2861   -3.0850    4.8417 H         1 <0>         0.0887
     65 H27         7.5413   -3.0261    5.1890 H         1 <0>         0.0742
     66 H28         8.0782   -1.2866    6.7593 H         1 <0>         0.3439
     67 H29         9.3593    1.1451    5.6923 H         1 <0>         0.0848
     68 H30         7.6640    1.0152    6.2189 H         1 <0>         0.0332
     69 H31         9.8404    0.2554    8.2410 H         1 <0>         0.1154
     70 H32         7.0435    1.6690    8.3668 H         1 <0>         0.0897
     71 H33         8.0845    1.1938    9.8132 H         1 <0>         0.0957
     72 H34         9.9504    2.6854    8.9601 H         1 <0>         0.0975
     73 H35         8.9094    3.1605    7.5138 H         1 <0>         0.0932
     74 H36        -2.1042   -6.4193   -0.9671 H         1 <0>         0.0793
     75 H37        -3.7635   -6.4573   -0.3241 H         1 <0>         0.0788
     76 H38        -3.1595   -4.9968   -1.1430 H         1 <0>         0.0788
@<TRIPOS>BOND
     1    1    2 1
     2    1   40 1
     3    1   41 1
     4    1   42 1
     5    2    9 1
     6    2    3 2
     7    3    4 1
     8    3   39 1
     9    4    5 2
    10    4    6 am
    11    6    7 1
    12    6    8 1
    13    8    9 2
    14    9   10 1
    15   10   11 1
    16   10   43 1
    17   10   44 1
    18   11   16 ar
    19   11   12 ar
    20   12   13 ar
    21   12   45 1
    22   13   14 ar
    23   13   46 1
    24   14   15 ar
    25   14   38 1
    26   15   16 ar
    27   15   17 1
    28   16   47 1
    29   17   18 2
    30   17   19 am
    31   19   24 1
    32   19   20 1
    33   20   21 1
    34   20   48 1
    35   20   49 1
    36   21   22 1
    37   21   50 1
    38   21   51 1
    39   22   23 1
    40   22   25 am
    41   23   24 1
    42   23   52 1
    43   23   53 1
    44   24   54 1
    45   24   55 1
    46   25   26 2
    47   25   27 1
    48   27   32 1
    49   27   28 1
    50   27   33 1
    51   28   29 1
    52   28   56 1
    53   28   57 1
    54   29   30 1
    55   29   58 1
    56   29   59 1
    57   30   31 1
    58   30   60 1
    59   30   61 1
    60   31   32 1
    61   31   62 1
    62   31   63 1
    63   32   64 1
    64   32   65 1
    65   33   34 1
    66   33   66 1
    67   34   35 1
    68   34   67 1
    69   34   68 1
    70   35   37 1
    71   35   36 1
    72   35   69 1
    73   36   37 1
    74   36   70 1
    75   36   71 1
    76   37   72 1
    77   37   73 1
    78   39   74 1
    79   39   75 1
    80   39   76 1
@<TRIPOS>MOLECULE
CHEMBL605844__2
   76    80     0     0     0
SMALL
USER_CHARGES

@<TRIPOS>ATOM
      1 C1         -2.9573   -2.9890   -0.3204 C.3       1 <0>        -0.1082
      2 C2         -3.0464   -1.6874   -1.0748 C.ar      1 <0>        -0.0668
      3 C3         -3.8368   -1.5718   -2.2083 C.ar      1 <0>        -0.1997
      4 C4         -3.8721   -0.3397   -2.8557 C.ar      1 <0>         0.3661
      5 O1         -4.6310   -0.1764   -3.9686 O.3       1 <0>        -0.6930
      6 N1         -3.1627    0.6718   -2.3806 N.ar      1 <0>        -0.3581
      7 N2         -2.4327    0.5593   -1.3310 N.ar      1 <0>        -0.2006
      8 C5         -2.3446   -0.5678   -0.6526 C.ar      1 <0>        -0.0748
      9 C6         -1.4769   -0.6415    0.5773 C.3       1 <0>        -0.0035
     10 C7         -2.3163   -0.3783    1.8009 C.ar      1 <0>        -0.0670
     11 C8         -2.5704    0.9241    2.1963 C.ar      1 <0>        -0.0476
     12 C9         -3.3390    1.1761    3.3168 C.ar      1 <0>        -0.1519
     13 C10        -3.8605    0.1263    4.0512 C.ar      1 <0>         0.1337
     14 C11        -3.6075   -1.1908    3.6561 C.ar      1 <0>        -0.1785
     15 C12        -2.8335   -1.4350    2.5195 C.ar      1 <0>        -0.0660
     16 C13        -4.1597   -2.3182    4.4342 C.2       1 <0>         0.5779
     17 O2         -5.3486   -2.3592    4.6848 O.2       1 <0>        -0.5112
     18 N3         -3.3456   -3.3016    4.8663 N.am      1 <0>        -0.6129
     19 C14        -1.8914   -3.2061    4.6768 C.3       1 <0>         0.0864
     20 C15        -1.2082   -3.3600    6.0413 C.3       1 <0>         0.0958
     21 N4         -1.7588   -4.5468    6.7109 N.am      1 <0>        -0.6019
     22 C16        -3.2131   -4.6422    6.9004 C.3       1 <0>         0.0642
     23 C17        -3.8957   -4.4857    5.5409 C.3       1 <0>         0.0978
     24 C18        -0.9447   -5.5301    7.1431 C.2       1 <0>         0.5088
     25 O3          0.2585   -5.3997    7.0644 O.2       1 <0>        -0.4763
     26 C19        -1.5295   -6.7916    7.7241 C.3       1 <0>         0.0396
     27 C20        -0.3996   -7.7563    8.0897 C.3       1 <0>        -0.1157
     28 C21         0.4052   -8.0983    6.8342 C.3       1 <0>        -0.1290
     29 C22        -0.5137   -8.7566    5.8030 C.3       1 <0>        -0.1290
     30 C23        -1.6436   -7.7919    5.4374 C.3       1 <0>        -0.1179
     31 C24        -2.4484   -7.4498    6.6929 C.3       1 <0>        -0.1506
     32 N5         -2.3022   -6.4632    8.9295 N.4       1 <0>        -0.5071
     33 C25        -1.4450   -5.7409    9.8789 C.3       1 <0>         0.0176
     34 C26        -2.2498   -5.3988   11.1344 C.3       1 <0>        -0.2137
     35 C27        -2.4700   -3.9181   11.4507 C.3       1 <0>        -0.1668
     36 C28        -1.5006   -4.7453   12.2975 C.3       1 <0>        -0.1461
     37 F1         -4.6115    0.3728    5.1469 F         1 <0>        -0.1318
     38 C29        -4.6324   -2.7434   -2.7237 C.3       1 <0>        -0.0809
     39 H1         -3.6789   -2.9857    0.4965 H         1 <0>         0.0604
     40 H2         -3.1767   -3.8161   -0.9957 H         1 <0>         0.0653
     41 H3         -1.9518   -3.1067    0.0835 H         1 <0>         0.0609
     42 H4         -1.0315   -1.6338    0.6488 H         1 <0>         0.0769
     43 H5         -0.6874    0.1071    0.5104 H         1 <0>         0.0874
     44 H6         -2.1655    1.7472    1.6263 H         1 <0>         0.1468
     45 H7         -3.5325    2.1945    3.6199 H         1 <0>         0.1436
     46 H8         -2.6371   -2.4498    2.2064 H         1 <0>         0.1362
     47 H9         -1.5567   -3.9995    4.0085 H         1 <0>         0.0838
     48 H10        -1.6411   -2.2349    4.2499 H         1 <0>         0.1171
     49 H11        -0.1345   -3.4844    5.9009 H         1 <0>         0.1171
     50 H12        -1.4002   -2.4754    6.6484 H         1 <0>         0.0883
     51 H13        -3.4633   -5.6134    7.3273 H         1 <0>         0.0808
     52 H14        -3.5478   -3.8489    7.5687 H         1 <0>         0.1008
     53 H15        -4.9688   -4.3593    5.6845 H         1 <0>         0.1176
     54 H16        -3.7070   -5.3723    4.9356 H         1 <0>         0.0823
     55 H17         0.2550   -7.2874    8.8243 H         1 <0>         0.0935
     56 H18        -0.8226   -8.6687    8.5099 H         1 <0>         0.0949
     57 H19         0.8281   -7.1859    6.4140 H         1 <0>         0.0977
     58 H20         1.2101   -8.7856    7.0947 H         1 <0>         0.0854
     59 H21         0.0596   -9.0003    4.9086 H         1 <0>         0.0817
     60 H22        -0.9367   -9.6690    6.2233 H         1 <0>         0.0706
     61 H23        -1.2207   -6.8795    5.0172 H         1 <0>         0.0730
     62 H24        -2.2983   -8.2608    4.7028 H         1 <0>         0.0923
     63 H25        -2.8714   -8.3623    7.1132 H         1 <0>         0.1046
     64 H26        -3.2534   -6.7626    6.4325 H         1 <0>         0.0993
     65 H27        -3.0883   -5.8830    8.6775 H         1 <0>         0.4225
     66 H28        -0.5958   -6.3676   10.1512 H         1 <0>         0.1414
     67 H29        -1.0848   -4.8218    9.4166 H         1 <0>         0.1284
     68 H30        -3.0548   -6.0914   11.3800 H         1 <0>         0.1285
     69 H31        -2.0416   -3.1877   10.7644 H         1 <0>         0.1056
     70 H32        -3.4202   -3.6364   11.9044 H         1 <0>         0.1124
     71 H33        -1.8131   -5.0077   13.3082 H         1 <0>         0.1139
     72 H34        -0.4345   -4.5591   12.1682 H         1 <0>         0.1080
     73 H35        -5.6205   -2.7421   -2.2637 H         1 <0>         0.0521
     74 H36        -4.7353   -2.6648   -3.8060 H         1 <0>         0.0673
     75 H37        -4.1167   -3.6707   -2.4742 H         1 <0>         0.0482
     76 H38        -2.6356   -7.3140    9.3575 H         1 <0>         0.4321
@<TRIPOS>BOND
     1    1    2 1
     2    1   39 1
     3    1   40 1
     4    1   41 1
     5    2    8 ar
     6    2    3 ar
     7    3    4 ar
     8    3   38 1
     9    4    5 1
    10    4    6 ar
    11    6    7 ar
    12    7    8 ar
    13    8    9 1
    14    9   10 1
    15    9   42 1
    16    9   43 1
    17   10   15 ar
    18   10   11 ar
    19   11   12 ar
    20   11   44 1
    21   12   13 ar
    22   12   45 1
    23   13   14 ar
    24   13   37 1
    25   14   15 ar
    26   14   16 1
    27   15   46 1
    28   16   17 2
    29   16   18 am
    30   18   23 1
    31   18   19 1
    32   19   20 1
    33   19   47 1
    34   19   48 1
    35   20   21 1
    36   20   49 1
    37   20   50 1
    38   21   22 1
    39   21   24 am
    40   22   23 1
    41   22   51 1
    42   22   52 1
    43   23   53 1
    44   23   54 1
    45   24   25 2
    46   24   26 1
    47   26   31 1
    48   26   27 1
    49   26   32 1
    50   27   28 1
    51   27   55 1
    52   27   56 1
    53   28   29 1
    54   28   57 1
    55   28   58 1
    56   29   30 1
    57   29   59 1
    58   29   60 1
    59   30   31 1
    60   30   61 1
    61   30   62 1
    62   31   63 1
    63   31   64 1
    64   32   33 1
    65   32   65 1
    66   32   76 1
    67   33   34 1
    68   33   66 1
    69   33   67 1
    70   34   36 1
    71   34   35 1
    72   34   68 1
    73   35   36 1
    74   35   69 1
    75   35   70 1
    76   36   71 1
    77   36   72 1
    78   38   73 1
    79   38   74 1
    80   38   75 1
@<TRIPOS>MOLECULE
CHEMBL433548
   34    37     0     0     0
SMALL
USER_CHARGES

@<TRIPOS>ATOM
      1 C1         -0.0167    1.3769    0.0096 C.ar      1 <0>        -0.1085
      2 C2          1.1575    2.1045    0.0023 C.ar      1 <0>        -0.0728
      3 C3          2.3930    1.4545   -0.0341 C.ar      1 <0>        -0.0910
      4 C4          2.4120    0.0472   -0.1414 C.ar      1 <0>        -0.0664
      5 C5          1.2130   -0.6827   -0.0635 C.ar      1 <0>         0.0910
      6 C6          0.0021   -0.0041    0.0020 C.ar      1 <0>        -0.0967
      7 N1          1.5459   -2.0212   -0.0901 N.pl3     1 <0>        -0.5816
      8 H1          0.9279   -2.7598    0.0255 H         1 <0>         0.4213
      9 C7          2.8988   -2.1350   -0.3086 C.2       1 <0>         0.1344
     10 C8          3.4478   -0.8974   -0.3745 C.2       1 <0>        -0.1529
     11 C9          4.8606   -0.5281   -0.6587 C.3       1 <0>        -0.0721
     12 C10         4.9768    0.7980   -1.3688 C.3       1 <0>         0.1126
     13 N2          4.8027    1.9360   -0.5005 N.am      1 <0>        -0.7156
     14 C11         3.6225    2.2385    0.0732 C.2       1 <0>         0.5638
     15 O1          3.5750    3.2547    0.7397 O.2       1 <0>        -0.5439
     16 C12         3.6384   -3.4072   -0.4493 C.ar      1 <0>        -0.0500
     17 C13         4.8474   -3.5928    0.2233 C.ar      1 <0>        -0.0611
     18 C14         5.5330   -4.7817    0.0888 C.ar      1 <0>        -0.1501
     19 C15         5.0239   -5.7913   -0.7127 C.ar      1 <0>         0.1109
     20 C16         3.8240   -5.6123   -1.3828 C.ar      1 <0>        -0.1509
     21 C17         3.1274   -4.4295   -1.2508 C.ar      1 <0>        -0.0738
     22 F1          5.7000   -6.9538   -0.8417 F         1 <0>        -0.1345
     23 H2         -0.9637    1.8958    0.0260 H         1 <0>         0.1361
     24 H3          1.1197    3.1837    0.0245 H         1 <0>         0.1353
     25 H4         -0.9247   -0.5567    0.0470 H         1 <0>         0.1277
     26 H5          5.4073   -0.4735    0.2827 H         1 <0>         0.0772
     27 H6          5.3094   -1.3022   -1.2810 H         1 <0>         0.0874
     28 H7          5.9616    0.8603   -1.8318 H         1 <0>         0.0907
     29 H8          4.2222    0.8402   -2.1542 H         1 <0>         0.0693
     30 H9          5.5666    2.5066   -0.3223 H         1 <0>         0.4057
     31 H10         5.2453   -2.8064    0.8476 H         1 <0>         0.1400
     32 H11         6.4684   -4.9263    0.6088 H         1 <0>         0.1431
     33 H12         3.4319   -6.4021   -2.0065 H         1 <0>         0.1413
     34 H13         2.1904   -4.2926   -1.7701 H         1 <0>         0.1338
@<TRIPOS>BOND
     1    1    6 ar
     2    1    2 ar
     3    1   23 1
     4    2    3 ar
     5    2   24 1
     6    3   14 1
     7    3    4 ar
     8    4   10 1
     9    4    5 ar
    10    5    6 ar
    11    5    7 1
    12    6   25 1
    13    7    8 1
    14    7    9 1
    15    9   10 2
    16    9   16 1
    17   10   11 1
    18   11   12 1
    19   11   26 1
    20   11   27 1
    21   12   13 1
    22   12   28 1
    23   12   29 1
    24   13   14 am
    25   13   30 1
    26   14   15 2
    27   16   21 ar
    28   16   17 ar
    29   17   18 ar
    30   17   31 1
    31   18   19 ar
    32   18   32 1
    33   19   20 ar
    34   19   22 1
    35   20   21 ar
    36   20   33 1
    37   21   34 1
@<TRIPOS>MOLECULE
CHEMBL540734
   42    45     0     0     0
SMALL
USER_CHARGES

@<TRIPOS>ATOM
      1 C1         -0.0167    1.3782    0.0096 C.ar      1 <0>        -0.0690
      2 C2          1.1730    2.0891    0.0021 C.ar      1 <0>        -0.1403
      3 C3          2.3698    1.4094   -0.0174 C.ar      1 <0>         0.2240
      4 C4          2.3966    0.0064   -0.0409 C.ar      1 <0>         0.1083
      5 C5          1.2025   -0.6919   -0.0221 C.ar      1 <0>        -0.0994
      6 C6          0.0021   -0.0041    0.0020 C.ar      1 <0>        -0.1775
      7 C7         -1.2965   -0.7686    0.0202 C.3       1 <0>         0.0554
      8 N1         -1.7420   -1.0097   -1.3587 N.4       1 <0>        -0.3932
      9 C8         -0.8289   -1.9685   -2.0318 C.3       1 <0>        -0.0049
     10 C9         -1.6962   -2.5350   -3.1839 C.3       1 <0>        -0.1459
     11 C10        -3.0987   -2.6391   -2.5418 C.3       1 <0>        -0.1452
     12 C11        -3.0738   -1.6531   -1.3592 C.3       1 <0>        -0.0092
     13 N2          3.6279   -0.6560   -0.1092 N.am      1 <0>        -0.6634
     14 C12         4.7904   -0.0427    0.2037 C.2       1 <0>         0.5114
     15 O1          5.8379   -0.6496    0.1290 O.2       1 <0>        -0.4981
     16 C13         4.7811    1.3973    0.6450 C.3       1 <0>         0.1237
     17 N3          3.6150    2.0407   -0.0018 N.pl3     1 <0>        -0.6369
     18 C14         4.0360    3.2916   -0.6288 C.3       1 <0>         0.1204
     19 C15         5.4539    3.5869   -0.0777 C.3       1 <0>        -0.1317
     20 C16         6.0195    2.1549    0.1391 C.3       1 <0>        -0.1149
     21 H1         -0.9595    1.9047    0.0260 H         1 <0>         0.1360
     22 H2          1.1611    3.1690    0.0111 H         1 <0>         0.1410
     23 H3          1.2072   -1.7719   -0.0266 H         1 <0>         0.1342
     24 H4         -1.1494   -1.7226    0.5265 H         1 <0>         0.1324
     25 H5         -2.0521   -0.1887    0.5500 H         1 <0>         0.1359
     26 H6          0.0466   -1.4533   -2.4269 H         1 <0>         0.1325
     27 H7         -0.5325   -2.7630   -1.3469 H         1 <0>         0.1311
     28 H8         -1.7095   -1.8483   -4.0303 H         1 <0>         0.0969
     29 H9         -1.3378   -3.5181   -3.4891 H         1 <0>         0.1150
     30 H10        -3.8659   -2.3495   -3.2598 H         1 <0>         0.1042
     31 H11        -3.2770   -3.6535   -2.1849 H         1 <0>         0.1030
     32 H12        -3.2265   -2.1913   -0.4237 H         1 <0>         0.1307
     33 H13        -3.8504   -0.8991   -1.4880 H         1 <0>         0.1317
     34 H14         3.6472   -1.5842   -0.3902 H         1 <0>         0.4116
     35 H15         4.7135    1.4614    1.7310 H         1 <0>         0.1124
     36 H16         4.0705    3.1759   -1.7121 H         1 <0>         0.0659
     37 H17         3.3525    4.0963   -0.3579 H         1 <0>         0.0763
     38 H18         6.0496    4.1340   -0.8085 H         1 <0>         0.0965
     39 H19         5.3998    4.1317    0.8648 H         1 <0>         0.0861
     40 H20         6.8084    2.1580    0.8912 H         1 <0>         0.1008
     41 H21         6.3790    1.7315   -0.7987 H         1 <0>         0.0866
     42 H22        -1.7751   -0.1411   -1.8710 H         1 <0>         0.4259
@<TRIPOS>BOND
     1    1    6 ar
     2    1    2 ar
     3    1   21 1
     4    2    3 ar
     5    2   22 1
     6    3   17 1
     7    3    4 ar
     8    4    5 ar
     9    4   13 1
    10    5    6 ar
    11    5   23 1
    12    6    7 1
    13    7    8 1
    14    7   24 1
    15    7   25 1
    16    8   12 1
    17    8    9 1
    18    8   42 1
    19    9   10 1
    20    9   26 1
    21    9   27 1
    22   10   11 1
    23   10   28 1
    24   10   29 1
    25   11   12 1
    26   11   30 1
    27   11   31 1
    28   12   32 1
    29   12   33 1
    30   13   14 am
    31   13   34 1
    32   14   15 2
    33   14   16 1
    34   16   20 1
    35   16   17 1
    36   16   35 1
    37   17   18 1
    38   18   19 1
    39   18   36 1
    40   18   37 1
    41   19   20 1
    42   19   38 1
    43   19   39 1
    44   20   40 1
    45   20   41 1
@<TRIPOS>MOLECULE
CHEMBL540734__1
   42    45     0     0     0
SMALL
USER_CHARGES

@<TRIPOS>ATOM
      1 C1         -0.0167    1.3782    0.0096 C.ar      1 <0>        -0.0690
      2 C2          1.1730    2.0891    0.0021 C.ar      1 <0>        -0.1409
      3 C3          2.3699    1.4094   -0.0086 C.ar      1 <0>         0.2239
      4 C4          2.3969    0.0062   -0.0008 C.ar      1 <0>         0.1088
      5 C5          1.2026   -0.6920   -0.0042 C.ar      1 <0>        -0.0993
      6 C6          0.0021   -0.0041    0.0020 C.ar      1 <0>        -0.1775
      7 C7         -1.2967   -0.7685    0.0005 C.3       1 <0>         0.0552
      8 N1         -1.7215   -1.0093   -1.3849 N.4       1 <0>        -0.3931
      9 C8         -0.7984   -1.9680   -2.0444 C.3       1 <0>        -0.0048
     10 C9         -1.6484   -2.5342   -3.2095 C.3       1 <0>        -0.1459
     11 C10        -3.0604   -2.6384   -2.5886 C.3       1 <0>        -0.1451
     12 C11        -3.0531   -1.6526   -1.4055 C.3       1 <0>        -0.0092
     13 N2          3.6293   -0.6568    0.0368 N.am      1 <0>        -0.6633
     14 C12         4.7856   -0.0400   -0.2916 C.2       1 <0>         0.5103
     15 O1          5.8343   -0.6478   -0.2443 O.2       1 <0>        -0.4980
     16 C13         4.7680    1.4046   -0.7172 C.3       1 <0>         0.1246
     17 N3          3.6146    2.0409   -0.0412 N.pl3     1 <0>        -0.6369
     18 C14         4.0477    3.2850    0.5910 C.3       1 <0>         0.1196
     19 C15         5.4548    3.5864    0.0161 C.3       1 <0>        -0.1312
     20 C16         6.0160    2.1569   -0.2269 C.3       1 <0>        -0.1155
     21 H1         -0.9595    1.9047    0.0260 H         1 <0>         0.1362
     22 H2          1.1611    3.1690    0.0042 H         1 <0>         0.1409
     23 H3          1.2073   -1.7720   -0.0121 H         1 <0>         0.1340
     24 H4         -1.1573   -1.7226    0.5088 H         1 <0>         0.1323
     25 H5         -2.0602   -0.1886    0.5191 H         1 <0>         0.1357
     26 H6          0.0830   -1.4528   -2.4262 H         1 <0>         0.1326
     27 H7         -0.5124   -2.7627   -1.3553 H         1 <0>         0.1309
     28 H8         -1.6490   -1.8473   -4.0559 H         1 <0>         0.0970
     29 H9         -1.2855   -3.5173   -3.5095 H         1 <0>         0.1150
     30 H10        -3.8168   -2.3485   -3.3179 H         1 <0>         0.1042
     31 H11        -3.2441   -3.6528   -2.2346 H         1 <0>         0.1030
     32 H12        -3.2199   -2.1909   -0.4726 H         1 <0>         0.1306
     33 H13        -3.8276   -0.8985   -1.5458 H         1 <0>         0.1317
     34 H14         3.6539   -1.5880    0.3074 H         1 <0>         0.4125
     35 H15         4.6797    1.4805   -1.8009 H         1 <0>         0.1113
     36 H16         3.3592    4.0925    0.3419 H         1 <0>         0.0766
     37 H17         4.1029    3.1577    1.6721 H         1 <0>         0.0669
     38 H18         5.3827    4.1413   -0.9193 H         1 <0>         0.0856
     39 H19         6.0644    4.1257    0.7412 H         1 <0>         0.0967
     40 H20         6.3933    1.7235    0.6992 H         1 <0>         0.0870
     41 H21         6.7904    2.1681   -0.9939 H         1 <0>         0.1006
     42 H22        -1.7468   -0.1406   -1.8975 H         1 <0>         0.4260
@<TRIPOS>BOND
     1    1    6 ar
     2    1    2 ar
     3    1   21 1
     4    2    3 ar
     5    2   22 1
     6    3   17 1
     7    3    4 ar
     8    4    5 ar
     9    4   13 1
    10    5    6 ar
    11    5   23 1
    12    6    7 1
    13    7    8 1
    14    7   24 1
    15    7   25 1
    16    8   12 1
    17    8    9 1
    18    8   42 1
    19    9   10 1
    20    9   26 1
    21    9   27 1
    22   10   11 1
    23   10   28 1
    24   10   29 1
    25   11   12 1
    26   11   30 1
    27   11   31 1
    28   12   32 1
    29   12   33 1
    30   13   14 am
    31   13   34 1
    32   14   15 2
    33   14   16 1
    34   16   20 1
    35   16   17 1
    36   16   35 1
    37   17   18 1
    38   18   19 1
    39   18   36 1
    40   18   37 1
    41   19   20 1
    42   19   38 1
    43   19   39 1
    44   20   40 1
    45   20   41 1
@<TRIPOS>MOLECULE
CHEMBL563634
   57    61     0     0     0
SMALL
USER_CHARGES

@<TRIPOS>ATOM
      1 C1         -0.0851    1.3164    0.0333 C.ar      1 <0>        -0.2953
      2 C2          1.1149    2.0099    0.0384 C.ar      1 <0>         0.1940
      3 N1          2.2514    1.3332    0.0237 N.ar      1 <0>        -0.5711
      4 C3          2.2506    0.0084    0.0043 C.ar      1 <0>         0.5658
      5 N2          1.1212   -0.6844   -0.0016 N.ar      1 <0>        -0.5728
      6 C4         -0.0496   -0.0691    0.0128 C.ar      1 <0>         0.1932
      7 N3          3.4581   -0.6678   -0.0107 N.pl3     1 <0>        -0.5839
      8 C5          4.7290    0.0693    0.0009 C.3       1 <0>         0.1258
      9 C6          5.5895   -0.4496    1.1572 C.3       1 <0>        -0.1144
     10 C7          5.7440   -1.9670    1.0318 C.3       1 <0>        -0.1074
     11 C8          4.3677   -2.6306    1.1182 C.3       1 <0>        -0.1256
     12 C9          3.4934   -2.1365   -0.0324 C.3       1 <0>         0.1280
     13 C10         6.6181   -2.4767    2.1485 C.2       1 <0>         0.5178
     14 O1          7.0726   -1.7028    2.9643 O.2       1 <0>        -0.5334
     15 N4          6.8948   -3.7925    2.2408 N.am      1 <0>        -0.7331
     16 C11         7.7446   -4.2880    3.3265 C.3       1 <0>         0.1209
     17 C12         7.8993   -5.8050    3.2013 C.3       1 <0>        -0.0587
     18 C13         8.7734   -6.3146    4.3181 C.2       1 <0>        -0.1636
     19 C14         8.3595   -6.7958    5.5004 C.2       1 <0>         0.0622
     20 N5          9.4378   -7.1634    6.2587 N.pl3     1 <0>        -0.5892
     21 H1          9.3879   -7.5385    7.1519 H         1 <0>         0.4204
     22 C15        10.6016   -6.9232    5.5688 C.ar      1 <0>         0.1249
     23 C16        10.2374   -6.3852    4.3175 C.ar      1 <0>        -0.1081
     24 C17        11.2227   -6.0477    3.3968 C.ar      1 <0>         0.0078
     25 C18        12.5624   -6.2472    3.7228 C.ar      1 <0>        -0.1664
     26 C19        12.9126   -6.7848    4.9659 C.ar      1 <0>        -0.0372
     27 C20        11.9480   -7.1117    5.8743 C.ar      1 <0>        -0.1400
     28 C21        13.5959   -5.8790    2.7337 C.2       1 <0>         0.5701
     29 O2         14.7249   -6.3194    2.8309 O.2       1 <0>        -0.5379
     30 N6         13.2723   -5.0494    1.7218 N.am      1 <0>        -0.7282
     31 C22        11.9364   -4.4678    1.6195 C.3       1 <0>         0.1142
     32 C23        10.8697   -5.4711    2.0521 C.3       1 <0>        -0.1089
     33 H2         -1.0273    1.8440    0.0494 H         1 <0>         0.1437
     34 H3          1.1220    3.0898    0.0539 H         1 <0>         0.1669
     35 H4         -0.9668   -0.6393    0.0086 H         1 <0>         0.1666
     36 H5          5.2515   -0.0883   -0.9427 H         1 <0>         0.0676
     37 H6          4.5335    1.1326    0.1395 H         1 <0>         0.1032
     38 H7          6.5721    0.0205    1.1190 H         1 <0>         0.0857
     39 H8          5.1076   -0.2102    2.1052 H         1 <0>         0.0740
     40 H9          6.2033   -2.2072    0.0729 H         1 <0>         0.1011
     41 H10         4.4807   -3.7127    1.0523 H         1 <0>         0.0816
     42 H11         3.8974   -2.3706    2.0665 H         1 <0>         0.0729
     43 H12         2.4829   -2.5280    0.0842 H         1 <0>         0.1031
     44 H13         3.9128   -2.4780   -0.9787 H         1 <0>         0.0686
     45 H14         6.5313   -4.4115    1.5884 H         1 <0>         0.4005
     46 H15         8.7253   -3.8164    3.2644 H         1 <0>         0.0701
     47 H16         7.2859   -4.0474    4.2856 H         1 <0>         0.0691
     48 H17         6.9185   -6.2765    3.2635 H         1 <0>         0.0800
     49 H18         8.3580   -6.0455    2.2422 H         1 <0>         0.0807
     50 H19         7.3278   -6.8798    5.8083 H         1 <0>         0.1737
     51 H20        13.9535   -6.9380    5.2100 H         1 <0>         0.1390
     52 H21        12.2290   -7.5283    6.8303 H         1 <0>         0.1284
     53 H22        13.9383   -4.8347    1.0501 H         1 <0>         0.4053
     54 H23        11.8795   -3.5866    2.2586 H         1 <0>         0.0682
     55 H24        11.7525   -4.1725    0.5865 H         1 <0>         0.0900
     56 H25        10.8098   -6.2747    1.3181 H         1 <0>         0.0899
     57 H26         9.9046   -4.9684    2.1159 H         1 <0>         0.1006
@<TRIPOS>BOND
     1    1    6 ar
     2    1    2 ar
     3    1   33 1
     4    2    3 ar
     5    2   34 1
     6    3    4 ar
     7    4    5 ar
     8    4    7 1
     9    5    6 ar
    10    6   35 1
    11    7   12 1
    12    7    8 1
    13    8    9 1
    14    8   36 1
    15    8   37 1
    16    9   10 1
    17    9   38 1
    18    9   39 1
    19   10   11 1
    20   10   13 1
    21   10   40 1
    22   11   12 1
    23   11   41 1
    24   11   42 1
    25   12   43 1
    26   12   44 1
    27   13   14 2
    28   13   15 am
    29   15   16 1
    30   15   45 1
    31   16   17 1
    32   16   46 1
    33   16   47 1
    34   17   18 1
    35   17   48 1
    36   17   49 1
    37   18   23 1
    38   18   19 2
    39   19   20 1
    40   19   50 1
    41   20   21 1
    42   20   22 1
    43   22   27 ar
    44   22   23 ar
    45   23   24 ar
    46   24   32 1
    47   24   25 ar
    48   25   26 ar
    49   25   28 1
    50   26   27 ar
    51   26   51 1
    52   27   52 1
    53   28   29 2
    54   28   30 am
    55   30   31 1
    56   30   53 1
    57   31   32 1
    58   31   54 1
    59   31   55 1
    60   32   56 1
    61   32   57 1
@<TRIPOS>MOLECULE
CHEMBL569636
   34    37     0     0     0
SMALL
USER_CHARGES

@<TRIPOS>ATOM
      1 C1         -0.0167    1.3773    0.0096 C.ar      1 <0>        -0.1183
      2 C2          1.1628    2.0989    0.0022 C.ar      1 <0>        -0.0874
      3 C3          2.3902    1.4413   -0.0130 C.ar      1 <0>        -0.0916
      4 C4          2.4212    0.0292   -0.0209 C.ar      1 <0>         0.1087
      5 C5          1.2102   -0.6855   -0.0132 C.ar      1 <0>         0.0373
      6 C6          0.0021   -0.0041    0.0020 C.ar      1 <0>        -0.0780
      7 N1          1.5541   -2.0238   -0.0242 N.pl3     1 <0>        -0.5936
      8 H1          0.9422   -2.7765   -0.0230 H         1 <0>         0.4258
      9 C7          2.9201   -2.0864   -0.0378 C.2       1 <0>         0.3429
     10 N2          3.4186   -0.8721   -0.0358 N.2       1 <0>        -0.4560
     11 C8          3.7148   -3.3325   -0.0522 C.ar      1 <0>        -0.0331
     12 C9          3.0710   -4.5719   -0.0582 C.ar      1 <0>        -0.1045
     13 C10         3.8124   -5.7323   -0.0716 C.ar      1 <0>        -0.0850
     14 C11         5.2055   -5.6702   -0.0790 C.ar      1 <0>         0.0143
     15 C12         5.8494   -4.4332   -0.0725 C.ar      1 <0>        -0.0699
     16 C13         5.1100   -3.2715   -0.0654 C.ar      1 <0>        -0.0670
     17 C14         6.0032   -6.9211   -0.0934 C.2       1 <0>         0.2774
     18 N3          7.3444   -6.9929   -0.0962 N.2       1 <0>        -0.5808
     19 C15         7.7246   -8.2502   -0.1100 C.2       1 <0>         0.4315
     20 S1          9.3901   -8.8254   -0.1181 S.3       1 <0>        -0.7081
     21 O1          6.6248   -9.0221   -0.1164 O.3       1 <0>        -0.1269
     22 N4          5.5146   -8.1376   -0.0997 N.2       1 <0>        -0.3931
     23 C16         3.6461    2.2121   -0.0214 C.2       1 <0>         0.5562
     24 O2          4.7151    1.6326   -0.0347 O.2       1 <0>        -0.5064
     25 N5          3.6099    3.5594   -0.0142 N.am      1 <0>        -0.8571
     26 H2         -0.9622    1.8989    0.0260 H         1 <0>         0.1374
     27 H3          1.1320    3.1784    0.0080 H         1 <0>         0.1333
     28 H4         -0.9268   -0.5551    0.0079 H         1 <0>         0.1288
     29 H5          1.9921   -4.6202   -0.0521 H         1 <0>         0.1242
     30 H6          3.3147   -6.6908   -0.0759 H         1 <0>         0.1388
     31 H7          6.9284   -4.3863   -0.0775 H         1 <0>         0.1504
     32 H8          5.6088   -2.3136   -0.0652 H         1 <0>         0.1484
     33 H9          2.7572    4.0216   -0.0036 H         1 <0>         0.3971
     34 H10         4.4366    4.0668   -0.0197 H         1 <0>         0.4042
@<TRIPOS>BOND
     1    1    6 ar
     2    1    2 ar
     3    1   26 1
     4    2    3 ar
     5    2   27 1
     6    3    4 ar
     7    3   23 1
     8    4   10 1
     9    4    5 ar
    10    5    6 ar
    11    5    7 1
    12    6   28 1
    13    7    8 1
    14    7    9 1
    15    9   10 2
    16    9   11 1
    17   11   16 ar
    18   11   12 ar
    19   12   13 ar
    20   12   29 1
    21   13   14 ar
    22   13   30 1
    23   14   15 ar
    24   14   17 1
    25   15   16 ar
    26   15   31 1
    27   16   32 1
    28   17   22 2
    29   17   18 1
    30   18   19 2
    31   19   20 1
    32   19   21 1
    33   21   22 1
    34   23   24 2
    35   23   25 am
    36   25   33 1
    37   25   34 1
@<TRIPOS>MOLECULE
CHEMBL583526
   34    37     0     0     0
SMALL
USER_CHARGES

@<TRIPOS>ATOM
      1 C1         -0.0167    1.3775    0.0096 C.ar      1 <0>        -0.1213
      2 C2          1.1627    2.0989    0.0022 C.ar      1 <0>        -0.0878
      3 C3          2.3901    1.4412   -0.0130 C.ar      1 <0>        -0.0939
      4 C4          2.4210    0.0291   -0.0209 C.ar      1 <0>         0.1108
      5 C5          1.2100   -0.6854   -0.0132 C.ar      1 <0>         0.0349
      6 C6          0.0021   -0.0041    0.0020 C.ar      1 <0>        -0.0773
      7 N1          1.5538   -2.0241   -0.0237 N.pl3     1 <0>        -0.5952
      8 H1          0.9418   -2.7767   -0.0222 H         1 <0>         0.4254
      9 C7          2.9200   -2.0868   -0.0371 C.2       1 <0>         0.3506
     10 N2          3.4185   -0.8722   -0.0353 N.2       1 <0>        -0.4611
     11 C8          3.7144   -3.3325   -0.0504 C.ar      1 <0>        -0.0475
     12 C9          3.0703   -4.5721   -0.0558 C.ar      1 <0>        -0.1054
     13 C10         3.8114   -5.7322   -0.0687 C.ar      1 <0>        -0.0875
     14 C11         5.2051   -5.6702   -0.0760 C.ar      1 <0>         0.0292
     15 C12         5.8493   -4.4327   -0.0706 C.ar      1 <0>        -0.0788
     16 C13         5.1099   -3.2714   -0.0636 C.ar      1 <0>        -0.0678
     17 C14         6.0022   -6.9201   -0.0889 C.2       1 <0>         0.3070
     18 N3          7.3243   -6.8869   -0.0909 N.2       1 <0>        -0.6343
     19 C15         7.9665   -8.0389   -0.1027 C.2       1 <0>         0.3972
     20 O1          9.3022   -8.2624   -0.1065 O.3       1 <0>        -0.6217
     21 S1          6.7153   -9.1601   -0.1108 S.3       1 <0>         0.0108
     22 N4          5.4164   -8.1008   -0.0932 N.2       1 <0>        -0.5250
     23 C16         3.6460    2.2119   -0.0214 C.2       1 <0>         0.5561
     24 O2          4.7151    1.6322   -0.0347 O.2       1 <0>        -0.5064
     25 N5          3.6100    3.5591   -0.0142 N.am      1 <0>        -0.8577
     26 H2         -0.9622    1.8991    0.0260 H         1 <0>         0.1363
     27 H3          1.1319    3.1785    0.0080 H         1 <0>         0.1323
     28 H4         -0.9268   -0.5551    0.0083 H         1 <0>         0.1279
     29 H5          1.9914   -4.6203   -0.0494 H         1 <0>         0.1194
     30 H6          3.3136   -6.6907   -0.0728 H         1 <0>         0.1398
     31 H7          6.9282   -4.3856   -0.0763 H         1 <0>         0.1471
     32 H8          5.6087   -2.3135   -0.0639 H         1 <0>         0.1432
     33 H9          2.7573    4.0214   -0.0036 H         1 <0>         0.3969
     34 H10         4.4367    4.0665   -0.0197 H         1 <0>         0.4037
@<TRIPOS>BOND
     1    1    6 ar
     2    1    2 ar
     3    1   26 1
     4    2    3 ar
     5    2   27 1
     6    3    4 ar
     7    3   23 1
     8    4   10 1
     9    4    5 ar
    10    5    6 ar
    11    5    7 1
    12    6   28 1
    13    7    8 1
    14    7    9 1
    15    9   10 2
    16    9   11 1
    17   11   16 ar
    18   11   12 ar
    19   12   13 ar
    20   12   29 1
    21   13   14 ar
    22   13   30 1
    23   14   15 ar
    24   14   17 1
    25   15   16 ar
    26   15   31 1
    27   16   32 1
    28   17   22 2
    29   17   18 1
    30   18   19 2
    31   19   20 1
    32   19   21 1
    33   21   22 1
    34   23   24 2
    35   23   25 am
    36   25   33 1
    37   25   34 1
@<TRIPOS>MOLECULE
CHEMBL196559
   41    44     0     0     0
SMALL
USER_CHARGES

@<TRIPOS>ATOM
      1 C1         -0.0926    1.3544    0.0156 C.ar      1 <0>        -0.0874
      2 C2          1.0814    2.0967    0.0165 C.ar      1 <0>        -0.1112
      3 C3          2.3089    1.4714    0.0075 C.ar      1 <0>        -0.0547
      4 C4          2.3671    0.0784   -0.0022 C.ar      1 <0>        -0.1261
      5 C5          1.1700   -0.6735   -0.0027 C.ar      1 <0>        -0.0595
      6 C6         -0.0595   -0.0120    0.0062 C.ar      1 <0>        -0.0977
      7 C7          1.2612   -2.1336   -0.0135 C.2       1 <0>         0.1393
      8 N1          2.4250   -2.7122   -0.0220 N.2       1 <0>        -0.2177
      9 N2          3.6225   -1.9964   -0.0217 N.am      1 <0>        -0.5343
     10 H1          4.4625   -2.4815   -0.0283 H         1 <0>         0.4363
     11 C8          3.6433   -0.6473   -0.0126 C.2       1 <0>         0.5280
     12 O1          4.7009   -0.0428   -0.0130 O.2       1 <0>        -0.5221
     13 C9          0.0056   -2.9669   -0.0143 C.3       1 <0>        -0.0176
     14 C10         0.3726   -4.4284   -0.0262 C.ar      1 <0>        -0.0500
     15 C11         0.5416   -5.0884   -1.2298 C.ar      1 <0>        -0.1276
     16 C12         0.8788   -6.4292   -1.2451 C.ar      1 <0>        -0.0882
     17 C13         1.0480   -7.1139   -0.0574 C.ar      1 <0>        -0.1545
     18 C14         0.8791   -6.4541    1.1527 C.ar      1 <0>         0.1657
     19 C15         0.5455   -5.1059    1.1646 C.ar      1 <0>        -0.1420
     20 N3          1.0494   -7.1449    2.3576 N.am      1 <0>        -0.5601
     21 C16         1.0064   -6.5188    3.6843 C.3       1 <0>         0.0943
     22 C17         0.8033   -7.6807    4.6819 C.3       1 <0>        -0.1319
     23 C18         1.3977   -8.8751    3.9001 C.3       1 <0>        -0.1542
     24 C19         1.2676   -8.4681    2.4489 C.2       1 <0>         0.5152
     25 O2          1.3508   -9.2253    1.5050 O.2       1 <0>        -0.5088
     26 H2         -1.0448    1.8640    0.0270 H         1 <0>         0.1366
     27 H3          1.0314    3.1756    0.0240 H         1 <0>         0.1374
     28 H4          3.2177    2.0548    0.0075 H         1 <0>         0.1433
     29 H5         -0.9798   -0.5772    0.0052 H         1 <0>         0.1418
     30 H6         -0.5776   -2.7460    0.8797 H         1 <0>         0.1052
     31 H7         -0.5849   -2.7333   -0.9002 H         1 <0>         0.1078
     32 H8          0.4095   -4.5554   -2.1598 H         1 <0>         0.1212
     33 H9          1.0097   -6.9418   -2.1866 H         1 <0>         0.1264
     34 H10         1.3111   -8.1612   -0.0699 H         1 <0>         0.1529
     35 H11         0.4175   -4.5890    2.1041 H         1 <0>         0.1224
     36 H12         1.9456   -6.0052    3.8896 H         1 <0>         0.0816
     37 H13         0.1723   -5.8197    3.7446 H         1 <0>         0.0872
     38 H14         1.3566   -7.5041    5.6043 H         1 <0>         0.0973
     39 H15        -0.2555   -7.8374    4.8878 H         1 <0>         0.0870
     40 H16         2.4443   -9.0225    4.1666 H         1 <0>         0.1105
     41 H17         0.8228   -9.7809    4.0924 H         1 <0>         0.1084
@<TRIPOS>BOND
     1    1    6 ar
     2    1    2 ar
     3    1   26 1
     4    2    3 ar
     5    2   27 1
     6    3    4 ar
     7    3   28 1
     8    4   11 1
     9    4    5 ar
    10    5    6 ar
    11    5    7 1
    12    6   29 1
    13    7    8 2
    14    7   13 1
    15    8    9 1
    16    9   10 1
    17    9   11 am
    18   11   12 2
    19   13   14 1
    20   13   30 1
    21   13   31 1
    22   14   19 ar
    23   14   15 ar
    24   15   16 ar
    25   15   32 1
    26   16   17 ar
    27   16   33 1
    28   17   18 ar
    29   17   34 1
    30   18   19 ar
    31   18   20 1
    32   19   35 1
    33   20   24 am
    34   20   21 1
    35   21   22 1
    36   21   36 1
    37   21   37 1
    38   22   23 1
    39   22   38 1
    40   22   39 1
    41   23   24 1
    42   23   40 1
    43   23   41 1
    44   24   25 2
@<TRIPOS>MOLECULE
CHEMBL83432
   64    68     0     0     0
SMALL
USER_CHARGES

@<TRIPOS>ATOM
      1 C1         -0.0165    1.3631    0.0095 C.ar      1 <0>        -0.0791
      2 C2          1.1649    2.0935    0.0022 C.ar      1 <0>        -0.1326
      3 C3          2.3791    1.4638   -0.0123 C.ar      1 <0>        -0.0475
      4 C4          2.4269    0.0700   -0.0198 C.ar      1 <0>        -0.1516
      5 C5          1.2279   -0.6733   -0.0132 C.ar      1 <0>         0.0032
      6 C6          0.0021   -0.0041    0.0020 C.ar      1 <0>        -0.1276
      7 C7          1.2981   -2.1430   -0.0228 C.2       1 <0>        -0.1422
      8 C8          2.4957   -2.7406   -0.0443 C.2       1 <0>         0.1232
      9 N1          3.6624   -2.0110   -0.0416 N.am      1 <0>        -0.6341
     10 C9          3.6937   -0.6686   -0.0330 C.2       1 <0>         0.5519
     11 O1          4.7568   -0.0742   -0.0366 O.2       1 <0>        -0.5202
     12 C10         2.6455   -4.2441   -0.0911 C.3       1 <0>         0.1606
     13 N2          1.3569   -4.8871    0.1785 N.pl3     1 <0>        -0.9940
     14 C11         0.1733   -4.3267   -0.4961 C.3       1 <0>         0.1136
     15 C12        -0.0062   -2.8954    0.0061 C.3       1 <0>        -0.0820
     16 S1          1.2364   -6.1874    1.1968 S.o2      1 <0>         2.6130
     17 O2          0.0806   -6.8870    0.7562 O.2       1 <0>        -0.9360
     18 O3          2.5165   -6.8027    1.1523 O.2       1 <0>        -0.9437
     19 C13         0.9448   -5.4696    2.8370 C.3       1 <0>        -0.6374
     20 C14         0.8158   -6.5917    3.8692 C.3       1 <0>         0.0670
     21 N3          0.5797   -6.0104    5.1974 N.3       1 <0>        -0.5307
     22 C15         1.7469   -5.2436    5.6513 C.3       1 <0>         0.0480
     23 C16         1.4135   -4.5352    6.9663 C.3       1 <0>        -0.1359
     24 C17         1.0243   -5.5780    8.0177 C.3       1 <0>         0.0270
     25 C18        -0.1627   -6.3949    7.4999 C.3       1 <0>        -0.1349
     26 C19         0.2163   -7.0494    6.1695 C.3       1 <0>         0.0517
     27 N4          0.6469   -4.9002    9.2652 N.4       1 <0>        -0.3918
     28 C20         0.3503   -5.9006   10.3222 C.3       1 <0>        -0.0061
     29 C21         0.5342   -5.0961   11.6335 C.3       1 <0>        -0.1452
     30 C22         1.7377   -4.1807   11.3115 C.3       1 <0>        -0.1448
     31 C23         1.7818   -4.1000    9.7744 C.3       1 <0>        -0.0092
     32 H1         -0.9632    1.8825    0.0259 H         1 <0>         0.1311
     33 H2          1.1243    3.1728    0.0076 H         1 <0>         0.1329
     34 H3          3.2922    2.0405   -0.0183 H         1 <0>         0.1391
     35 H4         -0.9229   -0.5615    0.0081 H         1 <0>         0.1353
     36 H5          2.9984   -4.5416   -1.0785 H         1 <0>         0.1049
     37 H6          3.3705   -4.5586    0.6597 H         1 <0>         0.1057
     38 H7          0.3288   -4.3237   -1.5749 H         1 <0>         0.0911
     39 H8         -0.7081   -4.9187   -0.2498 H         1 <0>         0.1083
     40 H9         -0.3823   -2.9198    1.0289 H         1 <0>         0.0798
     41 H10        -0.7293   -2.3821   -0.6277 H         1 <0>         0.0957
     42 H11         1.7811   -4.8239    3.1050 H         1 <0>         0.1313
     43 H12         0.0252   -4.8847    2.8194 H         1 <0>         0.1458
     44 H13        -0.0205   -7.2374    3.6013 H         1 <0>         0.1000
     45 H14         1.7354   -7.1766    3.8868 H         1 <0>         0.0587
     46 H15         2.5878   -5.9196    5.8060 H         1 <0>         0.0510
     47 H16         2.0106   -4.5028    4.8965 H         1 <0>         0.0981
     48 H17         2.2851   -3.9787    7.3110 H         1 <0>         0.0929
     49 H18         0.5815   -3.8487    6.8091 H         1 <0>         0.0961
     50 H19         1.8693   -6.2409    8.2036 H         1 <0>         0.1339
     51 H20        -0.4174   -7.1671    8.2258 H         1 <0>         0.0943
     52 H21        -1.0195   -5.7378    7.3512 H         1 <0>         0.0966
     53 H22        -0.6316   -7.6203    5.7910 H         1 <0>         0.1020
     54 H23         1.0644   -7.7169    6.3217 H         1 <0>         0.0511
     55 H24        -0.6741   -6.2622   10.2332 H         1 <0>         0.1356
     56 H25         1.0571   -6.7292   10.2769 H         1 <0>         0.1325
     57 H26        -0.3544   -4.5030   11.8500 H         1 <0>         0.0984
     58 H27         0.7671   -5.7614   12.4648 H         1 <0>         0.1168
     59 H28         1.5840   -3.1896   11.7382 H         1 <0>         0.1053
     60 H29         2.6595   -4.6193   11.6939 H         1 <0>         0.1034
     61 H30         2.7215   -4.5131    9.4076 H         1 <0>         0.1288
     62 H31         1.6786   -3.0634    9.4538 H         1 <0>         0.1314
     63 H32         4.5053   -2.4909   -0.0458 H         1 <0>         0.4138
     64 H33        -0.1551   -4.3076    9.1108 H         1 <0>         0.4256
@<TRIPOS>BOND
     1    1    6 ar
     2    1    2 ar
     3    1   32 1
     4    2    3 ar
     5    2   33 1
     6    3    4 ar
     7    3   34 1
     8    4   10 1
     9    4    5 ar
    10    5    6 ar
    11    5    7 1
    12    6   35 1
    13    7   15 1
    14    7    8 2
    15    8    9 1
    16    8   12 1
    17    9   10 am
    18    9   63 1
    19   10   11 2
    20   12   13 1
    21   12   36 1
    22   12   37 1
    23   13   14 1
    24   13   16 1
    25   14   15 1
    26   14   38 1
    27   14   39 1
    28   15   40 1
    29   15   41 1
    30   16   17 2
    31   16   18 2
    32   16   19 1
    33   19   20 1
    34   19   42 1
    35   19   43 1
    36   20   21 1
    37   20   44 1
    38   20   45 1
    39   21   26 1
    40   21   22 1
    41   22   23 1
    42   22   46 1
    43   22   47 1
    44   23   24 1
    45   23   48 1
    46   23   49 1
    47   24   25 1
    48   24   27 1
    49   24   50 1
    50   25   26 1
    51   25   51 1
    52   25   52 1
    53   26   53 1
    54   26   54 1
    55   27   31 1
    56   27   28 1
    57   27   64 1
    58   28   29 1
    59   28   55 1
    60   28   56 1
    61   29   30 1
    62   29   57 1
    63   29   58 1
    64   30   31 1
    65   30   59 1
    66   30   60 1
    67   31   61 1
    68   31   62 1
@<TRIPOS>MOLECULE
CHEMBL543393
   54    57     0     0     0
SMALL
USER_CHARGES

@<TRIPOS>ATOM
      1 C1         -0.0244    1.5337    0.0126 C.3       1 <0>        -0.1845
      2 C2         -0.0023    0.0038    0.0054 C.3       1 <0>         0.0240
      3 C3          0.7371   -0.5014    1.2460 C.3       1 <0>        -0.1839
      4 N1         -1.3801   -0.5058    0.0151 N.4       1 <0>        -0.3857
      5 C4         -1.3586   -1.9744    0.0100 C.3       1 <0>        -0.0050
      6 C5         -2.7933   -2.5058    0.0392 C.3       1 <0>         0.0281
      7 N2         -3.5220   -2.0053   -1.1350 N.3       1 <0>        -0.5219
      8 C6         -3.5305   -0.5358   -1.1566 C.3       1 <0>         0.0201
      9 C7         -2.0897   -0.0206   -1.1759 C.3       1 <0>        -0.0028
     10 C8         -4.8897   -2.5403   -1.1732 C.3       1 <0>         0.0365
     11 C9         -5.5211   -2.2103   -2.5011 C.2       1 <0>         0.5054
     12 O1         -4.8937   -1.5906   -3.3337 O.2       1 <0>        -0.4582
     13 N3         -6.7832   -2.6039   -2.7635 N.am      1 <0>        -0.6565
     14 C10        -7.4050   -2.2086   -3.9478 C.ar      1 <0>         0.3348
     15 C11        -8.7442   -2.5312   -4.1616 C.ar      1 <0>        -0.1552
     16 C12        -9.3583   -2.1393   -5.3341 C.ar      1 <0>        -0.0839
     17 C13        -8.6104   -1.4271   -6.2737 C.ar      1 <0>         0.1098
     18 C14        -7.2687   -1.1376   -5.9925 C.ar      1 <0>         0.1487
     19 N4         -6.7185   -1.5296   -4.8480 N.ar      1 <0>        -0.4327
     20 C15        -6.4770   -0.3847   -6.9855 C.ar      1 <0>        -0.0067
     21 C16        -5.1411   -0.0673   -6.7645 C.ar      1 <0>        -0.0860
     22 C17        -4.4400    0.6377   -7.7212 C.ar      1 <0>        -0.0927
     23 C18        -5.0558    1.0320   -8.8997 C.ar      1 <0>        -0.1159
     24 C19        -6.3794    0.7272   -9.1367 C.ar      1 <0>        -0.0535
     25 C20        -7.1046    0.0152   -8.1827 C.ar      1 <0>        -0.1286
     26 C21        -8.5181   -0.3314   -8.3958 C.2       1 <0>         0.5565
     27 N5         -9.1966   -1.0197   -7.4602 N.am      1 <0>        -0.6362
     28 O2         -9.0762    0.0061   -9.4233 O.2       1 <0>        -0.5092
     29 H1          0.9979    1.9118    0.0053 H         1 <0>         0.1063
     30 H2         -0.5511    1.8936   -0.8712 H         1 <0>         0.0825
     31 H3         -0.5356    1.8855    0.9087 H         1 <0>         0.0802
     32 H4          0.5089   -0.3480   -0.8907 H         1 <0>         0.1376
     33 H5          0.7528   -1.5912    1.2409 H         1 <0>         0.0818
     34 H6          1.7593   -0.1232    1.2387 H         1 <0>         0.1062
     35 H7          0.2258   -0.1495    2.1420 H         1 <0>         0.0802
     36 H8         -0.8587   -2.3274   -0.8920 H         1 <0>         0.1388
     37 H9         -0.8205   -2.3330    0.8875 H         1 <0>         0.1386
     38 H10        -2.7780   -3.5956    0.0204 H         1 <0>         0.1255
     39 H11        -3.2893   -2.1644    0.9478 H         1 <0>         0.0624
     40 H12        -4.0530   -0.1882   -2.0479 H         1 <0>         0.1399
     41 H13        -4.0386   -0.1618   -0.2677 H         1 <0>         0.0567
     42 H14        -2.0936    1.0694   -1.1776 H         1 <0>         0.1371
     43 H15        -1.5860   -0.3835   -2.0719 H         1 <0>         0.1397
     44 H16        -4.8604   -3.6221   -1.0436 H         1 <0>         0.1208
     45 H17        -5.4769   -2.0939   -0.3707 H         1 <0>         0.0800
     46 H18        -7.2590   -3.1621   -2.1288 H         1 <0>         0.4209
     47 H19        -9.2967   -3.0837   -3.4160 H         1 <0>         0.1490
     48 H20       -10.3948   -2.3787   -5.5208 H         1 <0>         0.1542
     49 H21        -4.6553   -0.3708   -5.8490 H         1 <0>         0.1473
     50 H22        -3.4026    0.8851   -7.5506 H         1 <0>         0.1327
     51 H23        -4.4932    1.5833   -9.6386 H         1 <0>         0.1368
     52 H24        -6.8518    1.0385  -10.0567 H         1 <0>         0.1445
     53 H25       -10.1279   -1.2377   -7.6220 H         1 <0>         0.4184
     54 H26        -1.8533   -0.1796    0.8445 H         1 <0>         0.4170
@<TRIPOS>BOND
     1    1    2 1
     2    1   29 1
     3    1   30 1
     4    1   31 1
     5    2    3 1
     6    2    4 1
     7    2   32 1
     8    3   33 1
     9    3   34 1
    10    3   35 1
    11    4    9 1
    12    4    5 1
    13    4   54 1
    14    5    6 1
    15    5   36 1
    16    5   37 1
    17    6    7 1
    18    6   38 1
    19    6   39 1
    20    7    8 1
    21    7   10 1
    22    8    9 1
    23    8   40 1
    24    8   41 1
    25    9   42 1
    26    9   43 1
    27   10   11 1
    28   10   44 1
    29   10   45 1
    30   11   12 2
    31   11   13 am
    32   13   14 1
    33   13   46 1
    34   14   19 ar
    35   14   15 ar
    36   15   16 ar
    37   15   47 1
    38   16   17 ar
    39   16   48 1
    40   17   27 1
    41   17   18 ar
    42   18   19 ar
    43   18   20 1
    44   20   25 ar
    45   20   21 ar
    46   21   22 ar
    47   21   49 1
    48   22   23 ar
    49   22   50 1
    50   23   24 ar
    51   23   51 1
    52   24   25 ar
    53   24   52 1
    54   25   26 1
    55   26   27 am
    56   26   28 2
    57   27   53 1
@<TRIPOS>MOLECULE
CHEMBL543159
   46    49     0     0     0
SMALL
USER_CHARGES

@<TRIPOS>ATOM
      1 C1          2.5085    1.4127    0.6321 C.ar      1 <0>        -0.0850
      2 C2          1.4590    2.1018    0.0425 C.ar      1 <0>        -0.1118
      3 C3          0.4195    1.4214   -0.5551 C.ar      1 <0>        -0.0512
      4 C4          0.4240    0.0273   -0.5671 C.ar      1 <0>        -0.1321
      5 C5          1.4918   -0.6712    0.0323 C.ar      1 <0>        -0.0123
      6 C6          2.5313    0.0332    0.6307 C.ar      1 <0>        -0.0875
      7 C7          1.4712   -2.1469    0.0057 C.ar      1 <0>         0.1234
      8 C8          0.3933   -2.7991   -0.6129 C.ar      1 <0>         0.1533
      9 C9          0.3745   -4.1913   -0.6376 C.ar      1 <0>        -0.1148
     10 C10         1.4285   -4.8773   -0.0461 C.ar      1 <0>         0.1071
     11 C11         2.4633   -4.1592    0.5486 C.ar      1 <0>         0.0794
     12 N1          2.4572   -2.8446    0.5573 N.ar      1 <0>        -0.4144
     13 N2          1.4497   -6.2751   -0.0477 N.am      1 <0>        -0.6382
     14 C12         0.2982   -6.9667    0.0620 C.2       1 <0>         0.5028
     15 O1         -0.7629   -6.3794    0.0767 O.2       1 <0>        -0.5083
     16 C13         0.3289   -8.4698    0.1662 C.3       1 <0>        -0.0285
     17 N3         -1.0439   -8.9813    0.2749 N.4       1 <0>        -0.3701
     18 C14        -1.6427   -8.5088    1.5290 C.3       1 <0>        -0.0201
     19 C15        -3.0991   -8.9712    1.6092 C.3       1 <0>        -0.1420
     20 C16        -3.1464  -10.5012    1.5637 C.3       1 <0>        -0.1404
     21 C17        -2.4531  -10.9859    0.2871 C.3       1 <0>        -0.1455
     22 C18        -1.0206  -10.4488    0.2559 C.3       1 <0>        -0.0068
     23 N4         -0.6389   -2.0821   -1.1922 N.am      1 <0>        -0.6383
     24 C19        -0.6652   -0.7371   -1.1932 C.2       1 <0>         0.5598
     25 O2         -1.5947   -0.1501   -1.7150 O.2       1 <0>        -0.5023
     26 H1          3.3172    1.9609    1.0925 H         1 <0>         0.1391
     27 H2          1.4560    3.1817    0.0520 H         1 <0>         0.1401
     28 H3         -0.3943    1.9656   -1.0113 H         1 <0>         0.1455
     29 H4          3.3518   -0.4969    1.0913 H         1 <0>         0.1457
     30 H5         -0.4398   -4.7251   -1.1048 H         1 <0>         0.1590
     31 H6          3.2834   -4.6904    1.0088 H         1 <0>         0.1714
     32 H7          2.2933   -6.7473   -0.1276 H         1 <0>         0.4269
     33 H8          0.8024   -8.8861   -0.7229 H         1 <0>         0.1656
     34 H9          0.8962   -8.7612    1.0502 H         1 <0>         0.1652
     35 H10        -1.0857   -8.9158    2.3729 H         1 <0>         0.1263
     36 H11        -1.6053   -7.4199    1.5613 H         1 <0>         0.1452
     37 H12        -3.5413   -8.6210    2.5419 H         1 <0>         0.1124
     38 H13        -3.6571   -8.5646    0.7658 H         1 <0>         0.0886
     39 H14        -2.6322  -10.9079    2.4346 H         1 <0>         0.0822
     40 H15        -4.1844  -10.8340    1.5636 H         1 <0>         0.0952
     41 H16        -2.4336  -12.0756    0.2748 H         1 <0>         0.1151
     42 H17        -2.9977  -10.6210   -0.5837 H         1 <0>         0.0889
     43 H18        -0.5241  -10.7921   -0.6517 H         1 <0>         0.1328
     44 H19        -0.4769  -10.8144    1.1270 H         1 <0>         0.1319
     45 H20        -1.3680   -2.5655   -1.6113 H         1 <0>         0.4176
     46 H21        -1.5898   -8.6445   -0.5040 H         1 <0>         0.4294
@<TRIPOS>BOND
     1    1    6 ar
     2    1    2 ar
     3    1   26 1
     4    2    3 ar
     5    2   27 1
     6    3    4 ar
     7    3   28 1
     8    4   24 1
     9    4    5 ar
    10    5    6 ar
    11    5    7 1
    12    6   29 1
    13    7   12 ar
    14    7    8 ar
    15    8    9 ar
    16    8   23 1
    17    9   10 ar
    18    9   30 1
    19   10   11 ar
    20   10   13 1
    21   11   12 ar
    22   11   31 1
    23   13   14 am
    24   13   32 1
    25   14   15 2
    26   14   16 1
    27   16   17 1
    28   16   33 1
    29   16   34 1
    30   17   22 1
    31   17   18 1
    32   17   46 1
    33   18   19 1
    34   18   35 1
    35   18   36 1
    36   19   20 1
    37   19   37 1
    38   19   38 1
    39   20   21 1
    40   20   39 1
    41   20   40 1
    42   21   22 1
    43   21   41 1
    44   21   42 1
    45   22   43 1
    46   22   44 1
    47   23   24 am
    48   23   45 1
    49   24   25 2
@<TRIPOS>MOLECULE
CHEMBL595716
   55    58     0     0     0
SMALL
USER_CHARGES

@<TRIPOS>ATOM
      1 C1         -0.0168    1.3850    0.0097 C.ar      1 <0>        -0.1664
      2 C2          1.1175    2.1323    0.0028 C.ar      1 <0>        -0.0053
      3 C3          2.3827    1.5134   -0.0130 C.ar      1 <0>        -0.2027
      4 C4          3.6906    1.9653   -0.0240 C.2       1 <0>         0.0889
      5 N1          4.4960    0.8912   -0.0379 N.pl3     1 <0>        -0.2896
      6 N2          3.7289   -0.2797   -0.0363 N.2       1 <0>        -0.2647
      7 C5          2.4541    0.0427   -0.0215 C.ar      1 <0>         0.1475
      8 C6          1.1953   -0.7095   -0.0126 C.ar      1 <0>        -0.1283
      9 C7          0.0021   -0.0041    0.0020 C.ar      1 <0>        -0.0158
     10 C8          1.1987   -2.1810   -0.0207 C.2       1 <0>         0.5639
     11 O1          2.2535   -2.7867   -0.0349 O.2       1 <0>        -0.5281
     12 N3          0.0331   -2.8577   -0.0123 N.am      1 <0>        -0.8524
     13 C9          5.8929    0.9356   -0.0524 C.ar      1 <0>         0.1866
     14 C10         6.5482    2.1623   -0.0473 C.ar      1 <0>        -0.1414
     15 C11         7.9246    2.2096   -0.0611 C.ar      1 <0>        -0.0259
     16 C12         8.6625    1.0236   -0.0802 C.ar      1 <0>        -0.1541
     17 C13         8.0011   -0.2068   -0.0854 C.ar      1 <0>        -0.0604
     18 C14         6.6245   -0.2470   -0.0662 C.ar      1 <0>        -0.1150
     19 C15        10.1386    1.0706   -0.0956 C.2       1 <0>         0.5739
     20 O2         10.7128    2.1421   -0.0915 O.2       1 <0>        -0.5190
     21 N4         10.8491   -0.0746   -0.1140 N.am      1 <0>        -0.7319
     22 C16        12.3133   -0.0281   -0.1292 C.3       1 <0>         0.0965
     23 C17        12.8687   -1.4536   -0.1487 C.3       1 <0>        -0.0231
     24 N5         14.3369   -1.4069   -0.1640 N.4       1 <0>        -0.3785
     25 C18        14.7923   -0.7866   -1.4139 C.3       1 <0>        -0.0154
     26 C19        16.3173   -0.6617   -1.3997 C.3       1 <0>        -0.1458
     27 C20        16.9369   -2.0557   -1.2645 C.3       1 <0>        -0.1400
     28 C21        16.3973   -2.7224    0.0042 C.3       1 <0>        -0.1464
     29 C22        14.8693   -2.7709   -0.0620 C.3       1 <0>        -0.0061
     30 H1         -0.9709    1.8906    0.0261 H         1 <0>         0.1364
     31 H2          1.0487    3.2101    0.0093 H         1 <0>         0.1348
     32 H3          4.0070    2.9979   -0.0217 H         1 <0>         0.1950
     33 H4         -0.9323   -0.5456    0.0080 H         1 <0>         0.1376
     34 H5         -0.8080   -2.3747   -0.0010 H         1 <0>         0.4002
     35 H6          0.0354   -3.8276   -0.0177 H         1 <0>         0.4075
     36 H7          5.9770    3.0788   -0.0328 H         1 <0>         0.1455
     37 H8          8.4328    3.1626   -0.0574 H         1 <0>         0.1517
     38 H9          8.5687   -1.1256   -0.1005 H         1 <0>         0.1347
     39 H10         6.1126   -1.1980   -0.0656 H         1 <0>         0.1536
     40 H11        10.3910   -0.9296   -0.1173 H         1 <0>         0.4082
     41 H12        12.6506    0.5055   -1.0178 H         1 <0>         0.0917
     42 H13        12.6697    0.4886    0.7619 H         1 <0>         0.0916
     43 H14        12.5313   -1.9871    0.7399 H         1 <0>         0.1395
     44 H15        12.5123   -1.9702   -1.0399 H         1 <0>         0.1379
     45 H16        14.4866   -1.4047   -2.2581 H         1 <0>         0.1309
     46 H17        14.3479    0.2040   -1.5103 H         1 <0>         0.1329
     47 H18        16.6535   -0.2026   -2.3294 H         1 <0>         0.1136
     48 H19        16.6240   -0.0436   -0.5560 H         1 <0>         0.0890
     49 H20        16.6723   -2.6580   -2.1335 H         1 <0>         0.0822
     50 H21        18.0212   -1.9676   -1.1970 H         1 <0>         0.0952
     51 H22        16.7908   -3.7362    0.0781 H         1 <0>         0.1137
     52 H23        16.7058   -2.1470    0.8771 H         1 <0>         0.0887
     53 H24        14.4819   -3.2452    0.8397 H         1 <0>         0.1317
     54 H25        14.5620   -3.3467   -0.9350 H         1 <0>         0.1300
     55 H26        14.6631   -0.8602    0.6188 H         1 <0>         0.4252
@<TRIPOS>BOND
     1    1    9 ar
     2    1    2 ar
     3    1   30 1
     4    2    3 ar
     5    2   31 1
     6    3    7 ar
     7    3    4 2
     8    4    5 1
     9    4   32 1
    10    5    6 1
    11    5   13 1
    12    6    7 2
    13    7    8 ar
    14    8    9 ar
    15    8   10 1
    16    9   33 1
    17   10   11 2
    18   10   12 am
    19   12   34 1
    20   12   35 1
    21   13   18 ar
    22   13   14 ar
    23   14   15 ar
    24   14   36 1
    25   15   16 ar
    26   15   37 1
    27   16   17 ar
    28   16   19 1
    29   17   18 ar
    30   17   38 1
    31   18   39 1
    32   19   20 2
    33   19   21 am
    34   21   22 1
    35   21   40 1
    36   22   23 1
    37   22   41 1
    38   22   42 1
    39   23   24 1
    40   23   43 1
    41   23   44 1
    42   24   29 1
    43   24   25 1
    44   24   55 1
    45   25   26 1
    46   25   45 1
    47   25   46 1
    48   26   27 1
    49   26   47 1
    50   26   48 1
    51   27   28 1
    52   27   49 1
    53   27   50 1
    54   28   29 1
    55   28   51 1
    56   28   52 1
    57   29   53 1
    58   29   54 1
@<TRIPOS>MOLECULE
CHEMBL593145
   52    55     0     0     0
SMALL
USER_CHARGES

@<TRIPOS>ATOM
      1 C1         -0.0168    1.3850    0.0097 C.ar      1 <0>        -0.1664
      2 C2          1.1175    2.1323    0.0028 C.ar      1 <0>        -0.0053
      3 C3          2.3827    1.5134   -0.0130 C.ar      1 <0>        -0.2027
      4 C4          3.6906    1.9653   -0.0240 C.2       1 <0>         0.0889
      5 N1          4.4960    0.8912   -0.0379 N.pl3     1 <0>        -0.2896
      6 N2          3.7289   -0.2797   -0.0363 N.2       1 <0>        -0.2647
      7 C5          2.4541    0.0427   -0.0215 C.ar      1 <0>         0.1476
      8 C6          1.1953   -0.7095   -0.0126 C.ar      1 <0>        -0.1283
      9 C7          0.0021   -0.0041    0.0020 C.ar      1 <0>        -0.0158
     10 C8          1.1987   -2.1810   -0.0207 C.2       1 <0>         0.5639
     11 O1          2.2535   -2.7867   -0.0349 O.2       1 <0>        -0.5281
     12 N3          0.0331   -2.8577   -0.0123 N.am      1 <0>        -0.8524
     13 C9          5.8929    0.9356   -0.0524 C.ar      1 <0>         0.1866
     14 C10         6.5482    2.1623   -0.0473 C.ar      1 <0>        -0.1414
     15 C11         7.9246    2.2096   -0.0611 C.ar      1 <0>        -0.0259
     16 C12         8.6625    1.0236   -0.0802 C.ar      1 <0>        -0.1542
     17 C13         8.0011   -0.2068   -0.0854 C.ar      1 <0>        -0.0604
     18 C14         6.6245   -0.2470   -0.0662 C.ar      1 <0>        -0.1151
     19 C15        10.1386    1.0706   -0.0956 C.2       1 <0>         0.5739
     20 O2         10.7128    2.1421   -0.0915 O.2       1 <0>        -0.5191
     21 N4         10.8491   -0.0746   -0.1140 N.am      1 <0>        -0.7324
     22 C16        12.3133   -0.0281   -0.1292 C.3       1 <0>         0.0978
     23 C17        12.8687   -1.4536   -0.1487 C.3       1 <0>        -0.0182
     24 N5         14.3369   -1.4069   -0.1640 N.4       1 <0>        -0.3909
     25 C18        14.8465   -0.8949    1.1339 C.3       1 <0>        -0.0109
     26 C19        16.3021   -1.4242    1.1768 C.3       1 <0>        -0.1452
     27 C20        16.1796   -2.8251    0.5346 C.3       1 <0>        -0.1454
     28 C21        14.8891   -2.7718   -0.3039 C.3       1 <0>        -0.0073
     29 H1         -0.9709    1.8906    0.0261 H         1 <0>         0.1364
     30 H2          1.0487    3.2101    0.0093 H         1 <0>         0.1348
     31 H3          4.0070    2.9979   -0.0217 H         1 <0>         0.1950
     32 H4         -0.9323   -0.5456    0.0080 H         1 <0>         0.1376
     33 H5         -0.8080   -2.3747   -0.0010 H         1 <0>         0.4002
     34 H6          0.0354   -3.8276   -0.0177 H         1 <0>         0.4075
     35 H7          5.9770    3.0788   -0.0328 H         1 <0>         0.1455
     36 H8          8.4328    3.1626   -0.0574 H         1 <0>         0.1517
     37 H9          8.5687   -1.1256   -0.1005 H         1 <0>         0.1346
     38 H10         6.1126   -1.1980   -0.0656 H         1 <0>         0.1536
     39 H11        10.3910   -0.9296   -0.1173 H         1 <0>         0.4080
     40 H12        12.6506    0.5055   -1.0178 H         1 <0>         0.0910
     41 H13        12.6697    0.4886    0.7619 H         1 <0>         0.0909
     42 H14        12.5313   -1.9871    0.7399 H         1 <0>         0.1374
     43 H15        12.5123   -1.9702   -1.0399 H         1 <0>         0.1380
     44 H16        14.8328    0.1949    1.1496 H         1 <0>         0.1381
     45 H17        14.2653   -1.3001    1.9622 H         1 <0>         0.1356
     46 H18        16.9618   -0.7865    0.5884 H         1 <0>         0.0995
     47 H19        16.6545   -1.5008    2.2054 H         1 <0>         0.1180
     48 H20        17.0389   -3.0242   -0.1057 H         1 <0>         0.1065
     49 H21        16.0974   -3.5895    1.3073 H         1 <0>         0.1047
     50 H22        14.1723   -3.5025    0.0708 H         1 <0>         0.1319
     51 H23        15.1175   -2.9745   -1.3502 H         1 <0>         0.1343
     52 H24        14.6590   -0.8220   -0.9205 H         1 <0>         0.4301
@<TRIPOS>BOND
     1    1    9 ar
     2    1    2 ar
     3    1   29 1
     4    2    3 ar
     5    2   30 1
     6    3    7 ar
     7    3    4 2
     8    4    5 1
     9    4   31 1
    10    5    6 1
    11    5   13 1
    12    6    7 2
    13    7    8 ar
    14    8    9 ar
    15    8   10 1
    16    9   32 1
    17   10   11 2
    18   10   12 am
    19   12   33 1
    20   12   34 1
    21   13   18 ar
    22   13   14 ar
    23   14   15 ar
    24   14   35 1
    25   15   16 ar
    26   15   36 1
    27   16   17 ar
    28   16   19 1
    29   17   18 ar
    30   17   37 1
    31   18   38 1
    32   19   20 2
    33   19   21 am
    34   21   22 1
    35   21   39 1
    36   22   23 1
    37   22   40 1
    38   22   41 1
    39   23   24 1
    40   23   42 1
    41   23   43 1
    42   24   28 1
    43   24   25 1
    44   24   52 1
    45   25   26 1
    46   25   44 1
    47   25   45 1
    48   26   27 1
    49   26   46 1
    50   26   47 1
    51   27   28 1
    52   27   48 1
    53   27   49 1
    54   28   50 1
    55   28   51 1
@<TRIPOS>MOLECULE
CHEMBL543394
   51    55     0     0     0
SMALL
USER_CHARGES

@<TRIPOS>ATOM
      1 C1          0.0196    1.3060   -0.9105 C.ar      1 <0>        -0.0906
      2 C2          1.2040    2.0278   -0.9185 C.ar      1 <0>        -0.1140
      3 C3          2.4124    1.3972   -0.7111 C.ar      1 <0>        -0.0520
      4 C4          2.4433    0.0210   -0.4909 C.ar      1 <0>        -0.1261
      5 C5          1.2386   -0.7107   -0.4826 C.ar      1 <0>        -0.0107
      6 C6          0.0295   -0.0567   -0.6942 C.ar      1 <0>        -0.0902
      7 C7          1.3003   -2.1668   -0.2474 C.ar      1 <0>         0.1688
      8 C8          2.5486   -2.7681   -0.0416 C.ar      1 <0>         0.0878
      9 C9          2.6061   -4.1453    0.1808 C.ar      1 <0>        -0.0685
     10 C10         1.4267   -4.8625    0.1891 C.ar      1 <0>        -0.1877
     11 C11         0.2187   -4.1989   -0.0229 C.ar      1 <0>         0.3821
     12 N1          0.1883   -2.8950   -0.2309 N.ar      1 <0>        -0.4986
     13 N2         -0.9708   -4.9202   -0.0152 N.pl3     1 <0>        -0.6179
     14 C12        -2.2664   -4.2274   -0.0042 C.3       1 <0>         0.1316
     15 C13        -3.1158   -4.7516   -1.1663 C.3       1 <0>        -0.1569
     16 C14        -3.2172   -6.2757   -1.0718 C.3       1 <0>         0.0311
     17 C15        -1.8194   -6.8894   -1.1799 C.3       1 <0>        -0.1574
     18 C16        -0.9554   -6.3894   -0.0242 C.3       1 <0>         0.1300
     19 N3         -4.0586   -6.7789   -2.1658 N.4       1 <0>        -0.3933
     20 C17        -4.2394   -8.2478   -2.0389 C.3       1 <0>        -0.0062
     21 C18        -5.5302   -8.5177   -2.8522 C.3       1 <0>        -0.1455
     22 C19        -6.4051   -7.2841   -2.5315 C.3       1 <0>        -0.1447
     23 C20        -5.4151   -6.1965   -2.0753 C.3       1 <0>        -0.0090
     24 N4          3.7143   -2.0197   -0.0556 N.am      1 <0>        -0.6362
     25 C21         3.7105   -0.6910   -0.2659 C.2       1 <0>         0.5552
     26 O1          4.7602   -0.0753   -0.2697 O.2       1 <0>        -0.5110
     27 H1         -0.9189    1.8158   -1.0706 H         1 <0>         0.1351
     28 H2          1.1794    3.0939   -1.0892 H         1 <0>         0.1382
     29 H3          3.3302    1.9664   -0.7196 H         1 <0>         0.1452
     30 H4         -0.8965   -0.6124   -0.6890 H         1 <0>         0.1387
     31 H5          3.5530   -4.6389    0.3424 H         1 <0>         0.1498
     32 H6          1.4394   -5.9291    0.3582 H         1 <0>         0.1431
     33 H7         -2.7770   -4.4225    0.9388 H         1 <0>         0.0722
     34 H8         -2.1084   -3.1553   -0.1215 H         1 <0>         0.1142
     35 H9         -4.1138   -4.3166   -1.1126 H         1 <0>         0.0972
     36 H10        -2.6486   -4.4760   -2.1117 H         1 <0>         0.0905
     37 H11        -3.6619   -6.5515   -0.1156 H         1 <0>         0.1373
     38 H12        -1.8947   -7.9759   -1.1361 H         1 <0>         0.0996
     39 H13        -1.3644   -6.5936   -2.1252 H         1 <0>         0.0911
     40 H14         0.0673   -6.7433   -0.1547 H         1 <0>         0.1037
     41 H15        -1.3568   -6.7647    0.9172 H         1 <0>         0.0794
     42 H16        -3.3925   -8.7786   -2.4739 H         1 <0>         0.1345
     43 H17        -4.3764   -8.5297   -0.9949 H         1 <0>         0.1335
     44 H18        -5.3106   -8.5681   -3.9187 H         1 <0>         0.0977
     45 H19        -6.0152   -9.4332   -2.5134 H         1 <0>         0.1167
     46 H20        -6.9408   -6.9582   -3.4231 H         1 <0>         0.1049
     47 H21        -7.1074   -7.5163   -1.7309 H         1 <0>         0.1038
     48 H22        -5.6278   -5.9090   -1.0456 H         1 <0>         0.1302
     49 H23        -5.4905   -5.3277   -2.7293 H         1 <0>         0.1312
     50 H24        -3.6423   -6.5544   -3.0570 H         1 <0>         0.4246
     51 H25         4.5615   -2.4687    0.0911 H         1 <0>         0.4175
@<TRIPOS>BOND
     1    1    6 ar
     2    1    2 ar
     3    1   27 1
     4    2    3 ar
     5    2   28 1
     6    3    4 ar
     7    3   29 1
     8    4   25 1
     9    4    5 ar
    10    5    6 ar
    11    5    7 1
    12    6   30 1
    13    7   12 ar
    14    7    8 ar
    15    8    9 ar
    16    8   24 1
    17    9   10 ar
    18    9   31 1
    19   10   11 ar
    20   10   32 1
    21   11   12 ar
    22   11   13 1
    23   13   18 1
    24   13   14 1
    25   14   15 1
    26   14   33 1
    27   14   34 1
    28   15   16 1
    29   15   35 1
    30   15   36 1
    31   16   17 1
    32   16   19 1
    33   16   37 1
    34   17   18 1
    35   17   38 1
    36   17   39 1
    37   18   40 1
    38   18   41 1
    39   19   23 1
    40   19   20 1
    41   19   50 1
    42   20   21 1
    43   20   42 1
    44   20   43 1
    45   21   22 1
    46   21   44 1
    47   21   45 1
    48   22   23 1
    49   22   46 1
    50   22   47 1
    51   23   48 1
    52   23   49 1
    53   24   25 am
    54   24   51 1
    55   25   26 2
@<TRIPOS>MOLECULE
CHEMBL479356
   65    68     0     0     0
SMALL
USER_CHARGES

@<TRIPOS>ATOM
      1 C1         -1.4757   -0.2710    1.0594 C.3       1 <0>        -0.1856
      2 C2         -1.0861   -1.7159    1.3774 C.3       1 <0>         0.0685
      3 C3          0.0837   -1.7233    2.3275 C.2       1 <0>         0.5227
      4 O1          1.1526   -2.1709    1.9698 O.2       1 <0>        -0.5066
      5 N1         -0.0580   -1.2325    3.5746 N.am      1 <0>        -0.6103
      6 C4         -1.3490   -0.6925    4.0237 C.3       1 <0>         0.0835
      7 C5         -1.7677   -1.4250    5.3046 C.3       1 <0>         0.0837
      8 N2         -0.6341   -1.4206    6.2399 N.am      1 <0>        -0.6086
      9 C6          0.6569   -1.9605    5.7908 C.3       1 <0>         0.0988
     10 C7          1.0740   -1.2332    4.5119 C.3       1 <0>         0.0998
     11 C8         -0.7759   -0.9297    7.4871 C.2       1 <0>         0.5670
     12 O2          0.1926   -0.8315    8.2154 O.2       1 <0>        -0.5119
     13 C9         -2.1077   -0.5112    7.9691 C.ar      1 <0>        -0.1711
     14 C10        -3.2150   -1.3411    7.7804 C.ar      1 <0>        -0.0345
     15 C11        -4.4554   -0.9447    8.2330 C.ar      1 <0>        -0.1102
     16 C12        -4.6068    0.2735    8.8736 C.ar      1 <0>        -0.0366
     17 C13        -3.5173    1.1020    9.0647 C.ar      1 <0>        -0.1580
     18 C14        -2.2653    0.7154    8.6217 C.ar      1 <0>         0.1643
     19 F1         -1.1993    1.5229    8.8135 F         1 <0>        -0.1188
     20 C15        -5.6504   -1.8400    8.0296 C.3       1 <0>         0.0938
     21 O3         -5.7853   -2.7163    9.1502 O.3       1 <0>        -0.2690
     22 C16        -6.8201   -3.5938    9.1250 C.ar      1 <0>         0.1793
     23 C17        -7.6865   -3.6174    8.0423 C.ar      1 <0>        -0.1912
     24 C18        -8.7394   -4.5099    8.0171 C.ar      1 <0>        -0.0812
     25 C19        -8.9394   -5.3886    9.0719 C.ar      1 <0>         0.0556
     26 C20        -8.0866   -5.3780   10.1565 C.ar      1 <0>        -0.0818
     27 C21        -7.0139   -4.4833   10.1900 C.ar      1 <0>        -0.1479
     28 C22        -6.0941   -4.4709   11.3435 C.2       1 <0>         0.5635
     29 O4         -5.1648   -3.6872   11.3716 O.2       1 <0>        -0.5119
     30 N3         -6.2839   -5.3282   12.3660 N.am      1 <0>        -0.8533
     31 F2         -9.9733   -6.2575    9.0371 F         1 <0>        -0.1346
     32 O5         -0.7231   -2.3882    0.1697 O.3       1 <0>        -0.2841
     33 C23        -1.7328   -2.9231   -0.5660 C.ar      1 <0>         0.1279
     34 C24        -1.4477   -3.6429   -1.7172 C.ar      1 <0>        -0.1476
     35 C25        -2.4758   -4.1861   -2.4631 C.ar      1 <0>        -0.0777
     36 C26        -3.7880   -4.0126   -2.0634 C.ar      1 <0>        -0.1570
     37 C27        -4.0747   -3.2952   -0.9167 C.ar      1 <0>        -0.0792
     38 C28        -3.0499   -2.7553   -0.1640 C.ar      1 <0>        -0.2139
     39 H1         -0.6304    0.2404    0.5989 H         1 <0>         0.0783
     40 H2         -2.3218   -0.2657    0.3722 H         1 <0>         0.0801
     41 H3         -1.7526    0.2418    1.9805 H         1 <0>         0.0837
     42 H4         -1.9314   -2.2273    1.8379 H         1 <0>         0.0987
     43 H5         -1.2485    0.3734    4.2281 H         1 <0>         0.0846
     44 H6         -2.1005   -0.8500    3.2500 H         1 <0>         0.1024
     45 H7         -2.6174   -0.9139    5.7571 H         1 <0>         0.1049
     46 H8         -2.0407   -2.4528    5.0656 H         1 <0>         0.0810
     47 H9          1.4083   -1.8030    6.5645 H         1 <0>         0.1114
     48 H10         0.5564   -3.0264    5.5865 H         1 <0>         0.0782
     49 H11         1.9223   -1.7476    4.0604 H         1 <0>         0.1104
     50 H12         1.3509   -0.2066    4.7518 H         1 <0>         0.0788
     51 H13        -3.0999   -2.2915    7.2805 H         1 <0>         0.1404
     52 H14        -5.5815    0.5779    9.2254 H         1 <0>         0.1427
     53 H15        -3.6429    2.0511    9.5645 H         1 <0>         0.1493
     54 H16        -6.5491   -1.2304    7.9348 H         1 <0>         0.0814
     55 H17        -5.5132   -2.4286    7.1225 H         1 <0>         0.0784
     56 H18        -7.5374   -2.9361    7.2177 H         1 <0>         0.1475
     57 H19        -9.4114   -4.5239    7.1718 H         1 <0>         0.1463
     58 H20        -8.2453   -6.0632   10.9762 H         1 <0>         0.1467
     59 H21        -7.0252   -5.9533   12.3435 H         1 <0>         0.3991
     60 H22        -5.6791   -5.3200   13.1244 H         1 <0>         0.4081
     61 H23        -0.4230   -3.7782   -2.0302 H         1 <0>         0.1327
     62 H24        -2.2544   -4.7465   -3.3594 H         1 <0>         0.1312
     63 H25        -4.5904   -4.4377   -2.6481 H         1 <0>         0.1251
     64 H26        -5.1005   -3.1607   -0.6067 H         1 <0>         0.1258
     65 H27        -3.2741   -2.1988    0.7341 H         1 <0>         0.1270
@<TRIPOS>BOND
     1    1    2 1
     2    1   39 1
     3    1   40 1
     4    1   41 1
     5    2    3 1
     6    2   32 1
     7    2   42 1
     8    3    4 2
     9    3    5 am
    10    5   10 1
    11    5    6 1
    12    6    7 1
    13    6   43 1
    14    6   44 1
    15    7    8 1
    16    7   45 1
    17    7   46 1
    18    8    9 1
    19    8   11 am
    20    9   10 1
    21    9   47 1
    22    9   48 1
    23   10   49 1
    24   10   50 1
    25   11   12 2
    26   11   13 1
    27   13   18 ar
    28   13   14 ar
    29   14   15 ar
    30   14   51 1
    31   15   16 ar
    32   15   20 1
    33   16   17 ar
    34   16   52 1
    35   17   18 ar
    36   17   53 1
    37   18   19 1
    38   20   21 1
    39   20   54 1
    40   20   55 1
    41   21   22 1
    42   22   27 ar
    43   22   23 ar
    44   23   24 ar
    45   23   56 1
    46   24   25 ar
    47   24   57 1
    48   25   26 ar
    49   25   31 1
    50   26   27 ar
    51   26   58 1
    52   27   28 1
    53   28   29 2
    54   28   30 am
    55   30   59 1
    56   30   60 1
    57   32   33 1
    58   33   38 ar
    59   33   34 ar
    60   34   35 ar
    61   34   61 1
    62   35   36 ar
    63   35   62 1
    64   36   37 ar
    65   36   63 1
    66   37   38 ar
    67   37   64 1
    68   38   65 1
@<TRIPOS>MOLECULE
CHEMBL479356__1
   65    68     0     0     0
SMALL
USER_CHARGES

@<TRIPOS>ATOM
      1 C1          1.1946    2.7553    1.0454 C.3       1 <0>        -0.1807
      2 C2          1.5140    1.2790    1.2894 C.3       1 <0>         0.0677
      3 C3          2.0828    0.6736    0.0321 C.2       1 <0>         0.5227
      4 O1          3.2552    0.3670   -0.0168 O.2       1 <0>        -0.5061
      5 N1          1.2887    0.4728   -1.0382 N.am      1 <0>        -0.6107
      6 C4         -0.1486    0.7717   -0.9696 C.3       1 <0>         0.0844
      7 C5         -0.5016    1.7439   -2.1022 C.3       1 <0>         0.0836
      8 N2          0.0543    1.2226   -3.3588 N.am      1 <0>        -0.6082
      9 C6          1.4916    0.9237   -3.4274 C.3       1 <0>         0.0989
     10 C7          1.8455   -0.0431   -2.2966 C.3       1 <0>         0.0998
     11 C8         -0.7399    1.0219   -4.4291 C.2       1 <0>         0.5671
     12 O2         -0.2905    0.4975   -5.4296 O.2       1 <0>        -0.5117
     13 C9         -2.1561    1.4388   -4.3863 C.ar      1 <0>        -0.1711
     14 C10        -2.5001    2.7079   -3.9157 C.ar      1 <0>        -0.0348
     15 C11        -3.8238    3.0912   -3.8788 C.ar      1 <0>        -0.1101
     16 C12        -4.8131    2.2219   -4.3064 C.ar      1 <0>        -0.0366
     17 C13        -4.4829    0.9638   -4.7734 C.ar      1 <0>        -0.1579
     18 C14        -3.1587    0.5671   -4.8223 C.ar      1 <0>         0.1643
     19 F1         -2.8355   -0.6607   -5.2841 F         1 <0>        -0.1187
     20 C15        -4.1953    4.4605   -3.3710 C.3       1 <0>         0.0938
     21 O3         -4.2050    5.3859   -4.4599 O.3       1 <0>        -0.2690
     22 C16        -4.5224    6.6733   -4.1715 C.ar      1 <0>         0.1793
     23 C17        -4.8136    7.0429   -2.8668 C.ar      1 <0>        -0.1912
     24 C18        -5.1370    8.3526   -2.5737 C.ar      1 <0>        -0.0812
     25 C19        -5.1734    9.3078   -3.5791 C.ar      1 <0>         0.0556
     26 C20        -4.8863    8.9567   -4.8823 C.ar      1 <0>        -0.0818
     27 C21        -4.5516    7.6354   -5.1896 C.ar      1 <0>        -0.1479
     28 C22        -4.2370    7.2540   -6.5796 C.2       1 <0>         0.5635
     29 O4         -3.9515    6.1021   -6.8442 O.2       1 <0>        -0.5119
     30 N3         -4.2662    8.1824   -7.5562 N.am      1 <0>        -0.8533
     31 F2         -5.4915   10.5866   -3.2813 F         1 <0>        -0.1346
     32 O5          2.4691    1.1667    2.3464 O.3       1 <0>        -0.2844
     33 C23         1.9862    1.1652    3.6167 C.ar      1 <0>         0.1275
     34 C24         0.6284    1.3369    3.8441 C.ar      1 <0>        -0.2138
     35 C25         0.1400    1.3344    5.1363 C.ar      1 <0>        -0.0792
     36 C26         1.0030    1.1615    6.2026 C.ar      1 <0>        -0.1567
     37 C27         2.3567    0.9907    5.9786 C.ar      1 <0>        -0.0778
     38 C28         2.8493    0.9862    4.6880 C.ar      1 <0>        -0.1476
     39 H1          2.1197    3.3015    0.8611 H         1 <0>         0.0797
     40 H2          0.5398    2.8469    0.1788 H         1 <0>         0.0793
     41 H3          0.6968    3.1691    1.9223 H         1 <0>         0.0801
     42 H4          0.6017    0.7509    1.5665 H         1 <0>         0.0980
     43 H5         -0.7198   -0.1492   -1.0868 H         1 <0>         0.0838
     44 H6         -0.3816    1.2299   -0.0084 H         1 <0>         0.1003
     45 H7         -1.5850    1.8274   -2.1882 H         1 <0>         0.1053
     46 H8         -0.0723    2.7232   -1.8907 H         1 <0>         0.0817
     47 H9          1.7245    0.4656   -4.3886 H         1 <0>         0.1115
     48 H10         2.0628    1.8446   -3.3102 H         1 <0>         0.0785
     49 H11         2.9293   -0.1231   -2.2114 H         1 <0>         0.1102
     50 H12         1.4196   -1.0235   -2.5103 H         1 <0>         0.0786
     51 H13        -1.7306    3.3877   -3.5809 H         1 <0>         0.1405
     52 H14        -5.8482    2.5285   -4.2745 H         1 <0>         0.1427
     53 H15        -5.2598    0.2907   -5.1047 H         1 <0>         0.1493
     54 H16        -5.1856    4.4233   -2.9171 H         1 <0>         0.0814
     55 H17        -3.4665    4.7823   -2.6272 H         1 <0>         0.0785
     56 H18        -4.7877    6.3047   -2.0789 H         1 <0>         0.1475
     57 H19        -5.3633    8.6350   -1.5562 H         1 <0>         0.1463
     58 H20        -4.9159    9.7028   -5.6626 H         1 <0>         0.1467
     59 H21        -4.4940    9.1013   -7.3451 H         1 <0>         0.3991
     60 H22        -4.0594    7.9317   -8.4701 H         1 <0>         0.4080
     61 H23        -0.0460    1.4727    3.0116 H         1 <0>         0.1270
     62 H24        -0.9169    1.4680    5.3138 H         1 <0>         0.1259
     63 H25         0.6192    1.1602    7.2121 H         1 <0>         0.1252
     64 H26         3.0289    0.8561    6.8132 H         1 <0>         0.1313
     65 H27         3.9062    0.8483    4.5134 H         1 <0>         0.1327
@<TRIPOS>BOND
     1    1    2 1
     2    1   39 1
     3    1   40 1
     4    1   41 1
     5    2    3 1
     6    2   32 1
     7    2   42 1
     8    3    4 2
     9    3    5 am
    10    5   10 1
    11    5    6 1
    12    6    7 1
    13    6   43 1
    14    6   44 1
    15    7    8 1
    16    7   45 1
    17    7   46 1
    18    8    9 1
    19    8   11 am
    20    9   10 1
    21    9   47 1
    22    9   48 1
    23   10   49 1
    24   10   50 1
    25   11   12 2
    26   11   13 1
    27   13   18 ar
    28   13   14 ar
    29   14   15 ar
    30   14   51 1
    31   15   16 ar
    32   15   20 1
    33   16   17 ar
    34   16   52 1
    35   17   18 ar
    36   17   53 1
    37   18   19 1
    38   20   21 1
    39   20   54 1
    40   20   55 1
    41   21   22 1
    42   22   27 ar
    43   22   23 ar
    44   23   24 ar
    45   23   56 1
    46   24   25 ar
    47   24   57 1
    48   25   26 ar
    49   25   31 1
    50   26   27 ar
    51   26   58 1
    52   27   28 1
    53   28   29 2
    54   28   30 am
    55   30   59 1
    56   30   60 1
    57   32   33 1
    58   33   38 ar
    59   33   34 ar
    60   34   35 ar
    61   34   61 1
    62   35   36 ar
    63   35   62 1
    64   36   37 ar
    65   36   63 1
    66   37   38 ar
    67   37   64 1
    68   38   65 1
@<TRIPOS>MOLECULE
CHEMBL1171297
   46    49     0     0     0
SMALL
USER_CHARGES

@<TRIPOS>ATOM
      1 C1         -0.8958    0.7847    0.2025 C.3       1 <0>        -0.1900
      2 C2         -0.3217   -0.6129   -0.0380 C.3       1 <0>        -0.0107
      3 N1          0.4140   -1.0521    1.1552 N.4       1 <0>        -0.3855
      4 C3          1.5741   -0.1771    1.3626 C.3       1 <0>        -0.0109
      5 C4          2.2979   -0.5797    2.6492 C.3       1 <0>        -0.1392
      6 C5          2.7671   -2.0327    2.5312 C.3       1 <0>        -0.0205
      7 C6          1.5584   -2.9271    2.2411 C.3       1 <0>        -0.1414
      8 C7          0.8620   -2.4375    0.9695 C.3       1 <0>        -0.0046
      9 C8          3.4119   -2.4606    3.8244 C.2       1 <0>         0.1209
     10 C9          4.4575   -3.3955    3.9553 C.2       1 <0>        -0.2418
     11 C10         5.2144   -4.2032    2.9852 C.ar      1 <0>         0.0576
     12 C11         4.9597   -4.1391    1.6180 C.ar      1 <0>        -0.1468
     13 C12         5.6971   -4.9158    0.7505 C.ar      1 <0>        -0.0694
     14 C13         6.6902   -5.7606    1.2271 C.ar      1 <0>        -0.1393
     15 C14         6.9580   -5.8396    2.5758 C.ar      1 <0>        -0.0315
     16 C15         6.2237   -5.0615    3.4712 C.ar      1 <0>        -0.1605
     17 C16         6.4720   -5.1095    4.9174 C.2       1 <0>         0.5731
     18 O1          7.3373   -5.8420    5.3609 O.2       1 <0>        -0.4992
     19 N2          5.7459   -4.3455    5.7540 N.am      1 <0>        -0.6238
     20 H1          5.9269   -4.3921    6.7058 H         1 <0>         0.4150
     21 C17         4.7560   -3.5006    5.3076 C.2       1 <0>         0.3466
     22 N3          3.9155   -2.6557    5.9615 N.pl3     1 <0>        -0.3680
     23 N4          3.1013   -2.0246    5.0142 N.2       1 <0>        -0.2661
     24 C18         3.8726   -2.4391    7.4098 C.3       1 <0>         0.0905
     25 H2         -0.0825    1.4817    0.4049 H         1 <0>         0.0807
     26 H3         -1.4417    1.1106   -0.6829 H         1 <0>         0.1061
     27 H4         -1.5722    0.7576    1.0569 H         1 <0>         0.0803
     28 H5         -1.1349   -1.3099   -0.2405 H         1 <0>         0.1306
     29 H6          0.3547   -0.5858   -0.8924 H         1 <0>         0.1294
     30 H7          2.2560   -0.2722    0.5176 H         1 <0>         0.1311
     31 H8          1.2388    0.8569    1.4431 H         1 <0>         0.1354
     32 H9          3.1599    0.0700    2.8005 H         1 <0>         0.1155
     33 H10         1.6169   -0.4847    3.4950 H         1 <0>         0.0988
     34 H11         3.4875   -2.1181    1.7177 H         1 <0>         0.1131
     35 H12         1.8919   -3.9553    2.1006 H         1 <0>         0.1187
     36 H13         0.8620   -2.8808    3.0783 H         1 <0>         0.0950
     37 H14         0.0011   -3.0723    0.7599 H         1 <0>         0.1350
     38 H15         1.5592   -2.4845    0.1329 H         1 <0>         0.1317
     39 H16         4.1886   -3.4846    1.2394 H         1 <0>         0.1278
     40 H17         5.5000   -4.8670   -0.3103 H         1 <0>         0.1323
     41 H18         7.2585   -6.3624    0.5332 H         1 <0>         0.1365
     42 H19         7.7322   -6.4997    2.9381 H         1 <0>         0.1428
     43 H20         4.5507   -1.6284    7.6762 H         1 <0>         0.0867
     44 H21         2.8576   -2.1766    7.7080 H         1 <0>         0.1038
     45 H22         4.1776   -3.3512    7.9228 H         1 <0>         0.0906
     46 H23        -0.1918   -1.0007    1.9604 H         1 <0>         0.4234
@<TRIPOS>BOND
     1    1    2 1
     2    1   25 1
     3    1   26 1
     4    1   27 1
     5    2    3 1
     6    2   28 1
     7    2   29 1
     8    3    8 1
     9    3    4 1
    10    3   46 1
    11    4    5 1
    12    4   30 1
    13    4   31 1
    14    5    6 1
    15    5   32 1
    16    5   33 1
    17    6    7 1
    18    6    9 1
    19    6   34 1
    20    7    8 1
    21    7   35 1
    22    7   36 1
    23    8   37 1
    24    8   38 1
    25    9   23 2
    26    9   10 1
    27   10   21 2
    28   10   11 1
    29   11   16 ar
    30   11   12 ar
    31   12   13 ar
    32   12   39 1
    33   13   14 ar
    34   13   40 1
    35   14   15 ar
    36   14   41 1
    37   15   16 ar
    38   15   42 1
    39   16   17 1
    40   17   18 2
    41   17   19 am
    42   19   20 1
    43   19   21 1
    44   21   22 1
    45   22   23 1
    46   22   24 1
    47   24   43 1
    48   24   44 1
    49   24   45 1
@<TRIPOS>MOLECULE
CHEMBL1171298
   68    72     0     0     0
SMALL
USER_CHARGES

@<TRIPOS>ATOM
      1 C1         -0.0187    1.5258    0.0104 C.3       1 <0>        -0.1462
      2 C2          0.0021   -0.0041    0.0020 C.3       1 <0>        -0.0738
      3 C3          0.7074   -0.4901   -1.2379 C.2       1 <0>        -0.1604
      4 C4          2.0266   -0.7996   -1.1871 C.2       1 <0>        -0.0372
      5 C5          2.6823   -1.2694   -2.4089 C.ar      1 <0>        -0.1186
      6 C6          4.0404   -1.6042   -2.4185 C.ar      1 <0>        -0.0518
      7 C7          4.6223   -2.0399   -3.5750 C.ar      1 <0>        -0.1293
      8 C8          3.8779   -2.1530   -4.7415 C.ar      1 <0>        -0.0666
      9 C9          2.5387   -1.8283   -4.7554 C.ar      1 <0>        -0.1554
     10 C10         1.9242   -1.3832   -3.5894 C.ar      1 <0>         0.1873
     11 N1          0.5859   -1.0524   -3.5746 N.am      1 <0>        -0.6327
     12 H1          0.0650   -1.1315   -4.3890 H         1 <0>         0.4181
     13 C11        -0.0088   -0.6270   -2.4463 C.2       1 <0>         0.5365
     14 O1         -1.1951   -0.3481   -2.4687 O.2       1 <0>        -0.5187
     15 C12         6.0855   -2.4006   -3.5849 C.3       1 <0>        -0.0263
     16 C13         6.8233   -1.5108   -4.5874 C.3       1 <0>        -0.1496
     17 C14         6.7681   -0.0564   -4.1154 C.3       1 <0>        -0.0117
     18 N2          7.4765    0.7979   -5.0779 N.4       1 <0>        -0.3816
     19 C15         8.8998    0.4395   -5.0930 C.3       1 <0>        -0.0125
     20 C16         9.6277    1.2705   -6.1518 C.3       1 <0>        -0.1454
     21 C17         9.4777    2.7575   -5.8178 C.3       1 <0>        -0.1393
     22 C18         7.9883    3.1034   -5.7314 C.3       1 <0>        -0.1461
     23 C19         7.3212    2.2045   -4.6882 C.3       1 <0>        -0.0068
     24 C20         6.2465   -3.8672   -3.9899 C.3       1 <0>        -0.0699
     25 C21         7.6968   -4.2620   -3.8814 C.ar      1 <0>        -0.0857
     26 C22         8.5380   -4.1042   -4.9671 C.ar      1 <0>        -0.1225
     27 C23         9.8683   -4.4663   -4.8719 C.ar      1 <0>        -0.1126
     28 C24        10.3631   -4.9889   -3.6862 C.ar      1 <0>         0.0521
     29 C25         9.5181   -5.1452   -2.5940 C.ar      1 <0>         0.0591
     30 C26         8.1850   -4.7758   -2.6950 C.ar      1 <0>        -0.1089
     31 O2          9.9848   -5.6486   -1.4188 O.3       1 <0>        -0.3060
     32 C27        11.2334   -6.3475   -1.4686 C.3       1 <0>         0.0187
     33 C28        12.2195   -5.5114   -2.2954 C.3       1 <0>         0.0204
     34 O3         11.6745   -5.3448   -3.6088 O.3       1 <0>        -0.3062
     35 H2          1.0039    1.9031    0.0027 H         1 <0>         0.0521
     36 H3         -0.5459    1.8868   -0.8726 H         1 <0>         0.0581
     37 H4         -0.5289    1.8773    0.9072 H         1 <0>         0.0654
     38 H5          0.5293   -0.3651    0.8851 H         1 <0>         0.0791
     39 H6         -1.0205   -0.3814    0.0098 H         1 <0>         0.0854
     40 H7          2.5815   -0.7014   -0.2658 H         1 <0>         0.1466
     41 H8          4.6265   -1.5184   -1.5154 H         1 <0>         0.1358
     42 H9          4.3534   -2.4987   -5.6474 H         1 <0>         0.1315
     43 H10         1.9685   -1.9190   -5.6681 H         1 <0>         0.1368
     44 H11         6.5035   -2.2505   -2.5895 H         1 <0>         0.0929
     45 H12         7.8630   -1.8300   -4.6601 H         1 <0>         0.0982
     46 H13         6.3485   -1.5938   -5.5650 H         1 <0>         0.0905
     47 H14         5.7284    0.2628   -4.0427 H         1 <0>         0.1314
     48 H15         7.2429    0.0266   -3.1378 H         1 <0>         0.1293
     49 H16         9.3345    0.6385   -4.1135 H         1 <0>         0.1276
     50 H17         9.0048   -0.6197   -5.3277 H         1 <0>         0.1320
     51 H18        10.6846    1.0042   -6.1602 H         1 <0>         0.1112
     52 H19         9.1939    1.0720   -7.1319 H         1 <0>         0.0873
     53 H20         9.9564    2.9662   -4.8611 H         1 <0>         0.0812
     54 H21         9.9461    3.3557   -6.5993 H         1 <0>         0.0936
     55 H22         7.8735    4.1472   -5.4393 H         1 <0>         0.1114
     56 H23         7.5205    2.9430   -6.7027 H         1 <0>         0.0872
     57 H24         6.2607    2.4483   -4.6240 H         1 <0>         0.1288
     58 H25         7.7896    2.3659   -3.7173 H         1 <0>         0.1277
     59 H26         5.6488   -4.4945   -3.3286 H         1 <0>         0.0875
     60 H27         5.9100   -3.9993   -5.0182 H         1 <0>         0.0823
     61 H28         8.1548   -3.6976   -5.8914 H         1 <0>         0.1289
     62 H29        10.5232   -4.3426   -5.7217 H         1 <0>         0.1355
     63 H30         7.5267   -4.8940   -1.8470 H         1 <0>         0.1358
     64 H31        11.6209   -6.4802   -0.4584 H         1 <0>         0.1279
     65 H32        11.0916   -7.3204   -1.9392 H         1 <0>         0.0822
     66 H33        12.3568   -4.5363   -1.8280 H         1 <0>         0.0793
     67 H34        13.1774   -6.0279   -2.3576 H         1 <0>         0.1275
     68 H35         7.0872    0.6601   -5.9985 H         1 <0>         0.4212
@<TRIPOS>BOND
     1    1    2 1
     2    1   35 1
     3    1   36 1
     4    1   37 1
     5    2    3 1
     6    2   38 1
     7    2   39 1
     8    3   13 1
     9    3    4 2
    10    4    5 1
    11    4   40 1
    12    5   10 ar
    13    5    6 ar
    14    6    7 ar
    15    6   41 1
    16    7    8 ar
    17    7   15 1
    18    8    9 ar
    19    8   42 1
    20    9   10 ar
    21    9   43 1
    22   10   11 1
    23   11   12 1
    24   11   13 am
    25   13   14 2
    26   15   16 1
    27   15   24 1
    28   15   44 1
    29   16   17 1
    30   16   45 1
    31   16   46 1
    32   17   18 1
    33   17   47 1
    34   17   48 1
    35   18   23 1
    36   18   19 1
    37   18   68 1
    38   19   20 1
    39   19   49 1
    40   19   50 1
    41   20   21 1
    42   20   51 1
    43   20   52 1
    44   21   22 1
    45   21   53 1
    46   21   54 1
    47   22   23 1
    48   22   55 1
    49   22   56 1
    50   23   57 1
    51   23   58 1
    52   24   25 1
    53   24   59 1
    54   24   60 1
    55   25   30 ar
    56   25   26 ar
    57   26   27 ar
    58   26   61 1
    59   27   28 ar
    60   27   62 1
    61   28   34 1
    62   28   29 ar
    63   29   30 ar
    64   29   31 1
    65   30   63 1
    66   31   32 1
    67   32   33 1
    68   32   64 1
    69   32   65 1
    70   33   34 1
    71   33   66 1
    72   33   67 1
@<TRIPOS>MOLECULE
CHEMBL1171298__1
   68    72     0     0     0
SMALL
USER_CHARGES

@<TRIPOS>ATOM
      1 C1          0.8347    1.4925    1.0963 C.3       1 <0>        -0.1474
      2 C2          0.8223   -0.0361    1.0326 C.3       1 <0>        -0.0716
      3 C3          1.2950   -0.4861   -0.3257 C.2       1 <0>        -0.1638
      4 C4          2.5968   -0.8163   -0.5127 C.2       1 <0>        -0.0342
      5 C5          3.0240   -1.2501   -1.8442 C.ar      1 <0>        -0.1173
      6 C6          4.3533   -1.6039   -2.0981 C.ar      1 <0>        -0.0428
      7 C7          4.7197   -2.0050   -3.3515 C.ar      1 <0>        -0.1154
      8 C8          3.7845   -2.0642   -4.3759 C.ar      1 <0>        -0.0661
      9 C9          2.4696   -1.7199   -4.1488 C.ar      1 <0>        -0.1567
     10 C10         2.0729   -1.3093   -2.8802 C.ar      1 <0>         0.1877
     11 N1          0.7640   -0.9601   -2.6246 N.am      1 <0>        -0.6322
     12 H1          0.1099   -1.0015   -3.3396 H         1 <0>         0.4174
     13 C11         0.3800   -0.5680   -1.3971 C.2       1 <0>         0.5376
     14 O1         -0.7867   -0.2714   -1.2060 O.2       1 <0>        -0.5216
     15 C12         6.1519   -2.3861   -3.6247 C.3       1 <0>        -0.0308
     16 C13         6.2111   -3.8389   -4.1008 C.3       1 <0>        -0.1433
     17 C14         7.6722   -4.2731   -4.2333 C.3       1 <0>        -0.0165
     18 N2          7.7313   -5.6262   -4.8020 N.4       1 <0>        -0.3821
     19 C15         7.1187   -6.5761   -3.8656 C.3       1 <0>        -0.0119
     20 C16         7.1045   -7.9741   -4.4875 C.3       1 <0>        -0.1461
     21 C17         8.5421   -8.4073   -4.7889 C.3       1 <0>        -0.1397
     22 C18         9.1955   -7.3702   -5.7070 C.3       1 <0>        -0.1464
     23 C19         9.1321   -5.9946   -5.0399 C.3       1 <0>        -0.0071
     24 C20         6.7254   -1.4706   -4.7082 C.3       1 <0>        -0.0723
     25 C21         6.7759   -0.0548   -4.1945 C.ar      1 <0>        -0.0877
     26 C22         5.7438    0.8199   -4.4796 C.ar      1 <0>        -0.0999
     27 C23         5.7872    2.1194   -4.0114 C.ar      1 <0>        -0.1097
     28 C24         6.8665    2.5495   -3.2538 C.ar      1 <0>         0.0562
     29 C25         7.9027    1.6696   -2.9652 C.ar      1 <0>         0.0534
     30 C26         7.8510    0.3654   -3.4347 C.ar      1 <0>        -0.1122
     31 O2          8.9673    2.0687   -2.2170 O.3       1 <0>        -0.3085
     32 C27         9.1609    3.4801   -2.0745 C.3       1 <0>         0.0203
     33 C28         7.8073    4.1191   -1.7356 C.3       1 <0>         0.0196
     34 O3          6.8970    3.8334   -2.8032 O.3       1 <0>        -0.3057
     35 H2          1.8484    1.8550    0.9259 H         1 <0>         0.0531
     36 H3          0.1717    1.8935    0.3296 H         1 <0>         0.0587
     37 H4          0.4928    1.8180    2.0788 H         1 <0>         0.0647
     38 H5          1.4852   -0.4371    1.7993 H         1 <0>         0.0775
     39 H6         -0.1914   -0.3986    1.2030 H         1 <0>         0.0843
     40 H7          3.3030   -0.7602    0.3024 H         1 <0>         0.1447
     41 H8          5.0869   -1.5599   -1.3067 H         1 <0>         0.1321
     42 H9          4.0908   -2.3830   -5.3613 H         1 <0>         0.1284
     43 H10         1.7499   -1.7686   -4.9525 H         1 <0>         0.1357
     44 H11         6.7370   -2.2789   -2.7114 H         1 <0>         0.0931
     45 H12         5.7060   -4.4791   -3.3775 H         1 <0>         0.0937
     46 H13         5.7174   -3.9245   -5.0688 H         1 <0>         0.0905
     47 H14         8.1991   -3.5800   -4.8891 H         1 <0>         0.1341
     48 H15         8.1424   -4.2714   -3.2499 H         1 <0>         0.1315
     49 H16         7.6946   -6.5963   -2.9404 H         1 <0>         0.1282
     50 H17         6.0967   -6.2647   -3.6495 H         1 <0>         0.1314
     51 H18         6.6509   -8.6782   -3.7900 H         1 <0>         0.1112
     52 H19         6.5286   -7.9551   -5.4127 H         1 <0>         0.0871
     53 H20         9.1049   -8.4760   -3.8580 H         1 <0>         0.0815
     54 H21         8.5340   -9.3785   -5.2838 H         1 <0>         0.0936
     55 H22        10.2364   -7.6427   -5.8812 H         1 <0>         0.1117
     56 H23         8.6629   -7.3387   -6.6575 H         1 <0>         0.0873
     57 H24         9.5966   -5.2539   -5.6908 H         1 <0>         0.1299
     58 H25         9.6652   -6.0272   -4.0897 H         1 <0>         0.1281
     59 H26         7.7320   -1.7996   -4.9664 H         1 <0>         0.0748
     60 H27         6.0909   -1.5136   -5.5934 H         1 <0>         0.0824
     61 H28         4.9025    0.4871   -5.0694 H         1 <0>         0.1283
     62 H29         4.9800    2.8009   -4.2360 H         1 <0>         0.1346
     63 H30         8.6538   -0.3211   -3.2098 H         1 <0>         0.1298
     64 H31         9.8707    3.6744   -1.2704 H         1 <0>         0.1263
     65 H32         9.5398    3.8953   -3.0083 H         1 <0>         0.0804
     66 H33         7.4255    3.6995   -0.8049 H         1 <0>         0.0798
     67 H34         7.9256    5.1977   -1.6320 H         1 <0>         0.1266
     68 H35         7.2266   -5.6452   -5.6755 H         1 <0>         0.4218
@<TRIPOS>BOND
     1    1    2 1
     2    1   35 1
     3    1   36 1
     4    1   37 1
     5    2    3 1
     6    2   38 1
     7    2   39 1
     8    3   13 1
     9    3    4 2
    10    4    5 1
    11    4   40 1
    12    5   10 ar
    13    5    6 ar
    14    6    7 ar
    15    6   41 1
    16    7    8 ar
    17    7   15 1
    18    8    9 ar
    19    8   42 1
    20    9   10 ar
    21    9   43 1
    22   10   11 1
    23   11   12 1
    24   11   13 am
    25   13   14 2
    26   15   16 1
    27   15   24 1
    28   15   44 1
    29   16   17 1
    30   16   45 1
    31   16   46 1
    32   17   18 1
    33   17   47 1
    34   17   48 1
    35   18   23 1
    36   18   19 1
    37   18   68 1
    38   19   20 1
    39   19   49 1
    40   19   50 1
    41   20   21 1
    42   20   51 1
    43   20   52 1
    44   21   22 1
    45   21   53 1
    46   21   54 1
    47   22   23 1
    48   22   55 1
    49   22   56 1
    50   23   57 1
    51   23   58 1
    52   24   25 1
    53   24   59 1
    54   24   60 1
    55   25   30 ar
    56   25   26 ar
    57   26   27 ar
    58   26   61 1
    59   27   28 ar
    60   27   62 1
    61   28   34 1
    62   28   29 ar
    63   29   30 ar
    64   29   31 1
    65   30   63 1
    66   31   32 1
    67   32   33 1
    68   32   64 1
    69   32   65 1
    70   33   34 1
    71   33   66 1
    72   33   67 1
@<TRIPOS>MOLECULE
CHEMBL608792
   60    64     0     0     0
SMALL
USER_CHARGES

@<TRIPOS>ATOM
      1 C1          0.3963    1.7801   -0.0322 C.3       1 <0>         0.0638
      2 N1          0.1370    0.3394    0.0268 N.am      1 <0>        -0.6145
      3 C2          0.1114   -0.3479    1.3203 C.3       1 <0>         0.1301
      4 C3         -1.3124   -0.3281    1.8802 C.3       1 <0>        -0.1573
      5 C4         -1.3387   -1.0351    3.2108 C.2       1 <0>         0.5209
      6 O1         -0.3192   -1.5083    3.6664 O.2       1 <0>        -0.5108
      7 N2         -2.4953   -1.1416    3.8945 N.am      1 <0>        -0.6708
      8 C5         -2.5006   -1.6993    5.1781 C.ar      1 <0>         0.1679
      9 C6         -1.3440   -1.6817    5.9512 C.ar      1 <0>        -0.0996
     10 C7         -1.3489   -2.2324    7.2189 C.ar      1 <0>        -0.1025
     11 C8         -2.4976   -2.8036    7.7280 C.ar      1 <0>        -0.0604
     12 C9         -3.6641   -2.8268    6.9611 C.ar      1 <0>        -0.1359
     13 C10        -3.6561   -2.2639    5.6835 C.ar      1 <0>        -0.1242
     14 C11        -5.0478   -2.4407    5.1299 C.3       1 <0>         0.1465
     15 N3         -5.8208   -3.1242    6.1732 N.am      1 <0>        -0.7230
     16 C12        -5.0168   -3.3541    7.2257 C.2       1 <0>         0.5621
     17 O2         -5.3589   -3.9045    8.2541 O.2       1 <0>        -0.5202
     18 C13        -0.0779   -0.3536   -1.1090 C.2       1 <0>         0.5007
     19 O3         -0.3628   -1.5313   -1.0560 O.2       1 <0>        -0.5063
     20 C14         0.0358    0.3348   -2.4447 C.3       1 <0>         0.0419
     21 H1          0.7297    1.1721   -2.3711 H         1 <0>         0.1238
     22 C15        -1.3519    0.8423   -2.8921 C.3       1 <0>         0.0551
     23 H2         -2.1470    0.2831   -2.3989 H         1 <0>         0.0968
     24 C16        -1.3341    0.5494   -4.4172 C.3       1 <0>         0.0791
     25 H3         -2.3420    0.3822   -4.7969 H         1 <0>         0.1040
     26 C17        -0.4990   -0.7553   -4.4563 C.3       1 <0>         0.3225
     27 O4          0.4980   -0.5940   -3.4323 O.3       1 <0>        -0.3367
     28 N4          0.1391   -0.9114   -5.7657 N.pl3     1 <0>        -0.4621
     29 C18         1.4074   -0.5356   -6.0949 C.2       1 <0>         0.2844
     30 N5          1.6469   -0.8227   -7.3414 N.2       1 <0>        -0.4662
     31 C19         0.5507   -1.3994   -7.8899 C.ar      1 <0>        -0.1034
     32 C20        -0.4281   -1.4683   -6.8840 C.ar      1 <0>         0.3077
     33 N6         -1.6102   -2.0046   -7.1687 N.ar      1 <0>        -0.5626
     34 C21        -1.8636   -2.4687   -8.3742 C.ar      1 <0>         0.3645
     35 N7         -0.9751   -2.4289   -9.3502 N.ar      1 <0>        -0.5919
     36 C22         0.2310   -1.9030   -9.1621 C.ar      1 <0>         0.5088
     37 N8          1.1560   -1.8669  -10.1909 N.pl3     1 <0>        -0.8171
     38 O5         -0.6840    1.5997   -5.1358 O.3       1 <0>        -0.5333
     39 O6         -1.4867    2.2425   -2.6406 O.3       1 <0>        -0.5387
     40 H4          1.4719    1.9551   -0.0549 H         1 <0>         0.0718
     41 H5         -0.0584    2.1946   -0.9319 H         1 <0>         0.0695
     42 H6         -0.0318    2.2626    0.8465 H         1 <0>         0.0839
     43 H7          0.4361   -1.3802    1.1897 H         1 <0>         0.0976
     44 H8          0.7818    0.1589    2.0144 H         1 <0>         0.0943
     45 H9         -1.6371    0.7042    2.0108 H         1 <0>         0.1025
     46 H10        -1.9828   -0.8348    1.1861 H         1 <0>         0.1034
     47 H11        -3.3241   -0.8318    3.4969 H         1 <0>         0.4131
     48 H12        -0.4408   -1.2374    5.5599 H         1 <0>         0.1573
     49 H13        -0.4482   -2.2160    7.8146 H         1 <0>         0.1399
     50 H14        -2.4941   -3.2327    8.7191 H         1 <0>         0.1361
     51 H15        -5.4904   -1.4689    4.9118 H         1 <0>         0.0947
     52 H16        -5.0169   -3.0501    4.2267 H         1 <0>         0.0954
     53 H17        -6.7554   -3.3763    6.1103 H         1 <0>         0.4274
     54 H18        -1.1312   -1.6158   -4.2376 H         1 <0>         0.1329
     55 H19         2.1098   -0.0681   -5.4207 H         1 <0>         0.2199
     56 H20        -2.8345   -2.8983   -8.5724 H         1 <0>         0.2054
     57 H21         2.0369   -1.4907  -10.0381 H         1 <0>         0.4193
     58 H22         0.9233   -2.2177  -11.0648 H         1 <0>         0.4108
     59 H23        -1.1155    2.4608   -5.0496 H         1 <0>         0.3952
     60 H24        -1.3865    2.4865   -1.7102 H         1 <0>         0.3864
@<TRIPOS>BOND
     1    1    2 1
     2    1   40 1
     3    1   41 1
     4    1   42 1
     5    2    3 1
     6    2   18 am
     7    3    4 1
     8    3   43 1
     9    3   44 1
    10    4    5 1
    11    4   45 1
    12    4   46 1
    13    5    6 2
    14    5    7 am
    15    7    8 1
    16    7   47 1
    17    8   13 ar
    18    8    9 ar
    19    9   10 ar
    20    9   48 1
    21   10   11 ar
    22   10   49 1
    23   11   12 ar
    24   11   50 1
    25   12   16 1
    26   12   13 ar
    27   13   14 1
    28   14   15 1
    29   14   51 1
    30   14   52 1
    31   15   16 am
    32   15   53 1
    33   16   17 2
    34   18   19 2
    35   18   20 1
    36   20   21 1
    37   20   27 1
    38   20   22 1
    39   22   23 1
    40   22   24 1
    41   22   39 1
    42   24   25 1
    43   24   26 1
    44   24   38 1
    45   26   27 1
    46   26   28 1
    47   26   54 1
    48   28   32 1
    49   28   29 1
    50   29   30 2
    51   29   55 1
    52   30   31 1
    53   31   36 ar
    54   31   32 ar
    55   32   33 ar
    56   33   34 ar
    57   34   35 ar
    58   34   56 1
    59   35   36 ar
    60   36   37 1
    61   37   57 1
    62   37   58 1
    63   38   59 1
    64   39   60 1
@<TRIPOS>MOLECULE
CHEMBL608792__1
   60    64     0     0     0
SMALL
USER_CHARGES

@<TRIPOS>ATOM
      1 C1         -0.7300    1.7532    0.4783 C.3       1 <0>         0.0549
      2 N1         -0.6538    0.2904    0.4552 N.am      1 <0>        -0.6135
      3 C2         -0.3009   -0.4440    1.6727 C.3       1 <0>         0.1308
      4 C3         -1.5735   -0.7780    2.4537 C.3       1 <0>        -0.1579
      5 C4         -1.2105   -1.5335    3.7061 C.2       1 <0>         0.5210
      6 O1         -0.0483   -1.7805    3.9500 O.2       1 <0>        -0.5108
      7 N2         -2.1772   -1.9347    4.5551 N.am      1 <0>        -0.6709
      8 C5         -1.8347   -2.5268    5.7762 C.ar      1 <0>         0.1680
      9 C6         -0.5975   -2.2644    6.3560 C.ar      1 <0>        -0.0990
     10 C7         -0.2590   -2.8489    7.5618 C.ar      1 <0>        -0.1024
     11 C8         -1.1422   -3.6962    8.1998 C.ar      1 <0>        -0.0603
     12 C9         -2.3865   -3.9667    7.6272 C.ar      1 <0>        -0.1359
     13 C10        -2.7266   -3.3691    6.4121 C.ar      1 <0>        -0.1240
     14 C11        -4.1150   -3.8506    6.0729 C.3       1 <0>         0.1465
     15 N3         -4.5208   -4.7381    7.1687 N.am      1 <0>        -0.7231
     16 C12        -3.5171   -4.8106    8.0601 C.2       1 <0>         0.5621
     17 O2         -3.5430   -5.4657    9.0836 O.2       1 <0>        -0.5201
     18 C13        -0.9083   -0.3797   -0.6862 C.2       1 <0>         0.5181
     19 O3         -0.9108   -1.5925   -0.6896 O.2       1 <0>        -0.5011
     20 C14        -1.1898    0.3780   -1.9580 C.3       1 <0>         0.0304
     21 H1         -0.6814    1.3421   -1.9496 H         1 <0>         0.1178
     22 C15        -2.7156    0.5672   -2.1543 C.3       1 <0>         0.0546
     23 H2         -3.2627   -0.3156   -1.8235 H         1 <0>         0.0963
     24 C16        -2.8259    0.7428   -3.6885 C.3       1 <0>         0.0835
     25 H3         -3.6958    0.2094   -4.0719 H         1 <0>         0.0904
     26 C17        -1.5269    0.1189   -4.2344 C.3       1 <0>         0.3157
     27 O4         -0.7920   -0.3964   -3.1098 O.3       1 <0>        -0.3299
     28 N4         -1.8481   -0.9684   -5.1623 N.pl3     1 <0>        -0.4758
     29 C18        -1.9297   -2.2938   -4.8544 C.2       1 <0>         0.2667
     30 N5         -2.2356   -2.9793   -5.9175 N.2       1 <0>        -0.4588
     31 C19        -2.3694   -2.1397   -6.9722 C.ar      1 <0>        -0.1080
     32 C20        -2.1277   -0.8387   -6.4992 C.ar      1 <0>         0.3100
     33 N6         -2.2035    0.1814   -7.3474 N.ar      1 <0>        -0.5543
     34 C21        -2.5034   -0.0195   -8.6134 C.ar      1 <0>         0.3668
     35 N7         -2.7417   -1.2224   -9.1031 N.ar      1 <0>        -0.5905
     36 C22        -2.6806   -2.3038   -8.3326 C.ar      1 <0>         0.5098
     37 N8         -2.9331   -3.5603   -8.8546 N.pl3     1 <0>        -0.8162
     38 O5         -2.9001    2.1285   -4.0293 O.3       1 <0>        -0.5314
     39 O6         -3.1765    1.7352   -1.4722 O.3       1 <0>        -0.5388
     40 H4          0.2635    2.1714    0.3167 H         1 <0>         0.0719
     41 H5         -1.4006    2.0946   -0.3103 H         1 <0>         0.0800
     42 H6         -1.1097    2.0821    1.4457 H         1 <0>         0.0841
     43 H7          0.2134   -1.3668    1.4042 H         1 <0>         0.0984
     44 H8          0.3539    0.1703    2.2906 H         1 <0>         0.0955
     45 H9         -2.0877    0.1447    2.7222 H         1 <0>         0.1031
     46 H10        -2.2283   -1.3924    1.8357 H         1 <0>         0.1037
     47 H11        -3.1104   -1.8132    4.3199 H         1 <0>         0.4131
     48 H12         0.0996   -1.6031    5.8629 H         1 <0>         0.1564
     49 H13         0.7027   -2.6417    8.0074 H         1 <0>         0.1399
     50 H14        -0.8708   -4.1501    9.1415 H         1 <0>         0.1362
     51 H15        -4.7984   -3.0042    6.0037 H         1 <0>         0.0947
     52 H16        -4.1014   -4.3998    5.1315 H         1 <0>         0.0954
     53 H17        -5.3698   -5.2027    7.2347 H         1 <0>         0.4274
     54 H18        -0.9353    0.8802   -4.7429 H         1 <0>         0.1320
     55 H19        -1.7644   -2.7133   -3.8730 H         1 <0>         0.2257
     56 H20        -2.5568    0.8315   -9.2763 H         1 <0>         0.2069
     57 H21        -2.8963   -4.3407   -8.2797 H         1 <0>         0.4196
     58 H22        -3.1468   -3.6606   -9.7955 H         1 <0>         0.4115
     59 H23        -3.6703    2.5833   -3.6617 H         1 <0>         0.3971
     60 H24        -2.9994    1.7312   -0.5216 H         1 <0>         0.3865
@<TRIPOS>BOND
     1    1    2 1
     2    1   40 1
     3    1   41 1
     4    1   42 1
     5    2    3 1
     6    2   18 am
     7    3    4 1
     8    3   43 1
     9    3   44 1
    10    4    5 1
    11    4   45 1
    12    4   46 1
    13    5    6 2
    14    5    7 am
    15    7    8 1
    16    7   47 1
    17    8   13 ar
    18    8    9 ar
    19    9   10 ar
    20    9   48 1
    21   10   11 ar
    22   10   49 1
    23   11   12 ar
    24   11   50 1
    25   12   16 1
    26   12   13 ar
    27   13   14 1
    28   14   15 1
    29   14   51 1
    30   14   52 1
    31   15   16 am
    32   15   53 1
    33   16   17 2
    34   18   19 2
    35   18   20 1
    36   20   21 1
    37   20   27 1
    38   20   22 1
    39   22   23 1
    40   22   24 1
    41   22   39 1
    42   24   25 1
    43   24   26 1
    44   24   38 1
    45   26   27 1
    46   26   28 1
    47   26   54 1
    48   28   32 1
    49   28   29 1
    50   29   30 2
    51   29   55 1
    52   30   31 1
    53   31   36 ar
    54   31   32 ar
    55   32   33 ar
    56   33   34 ar
    57   34   35 ar
    58   34   56 1
    59   35   36 ar
    60   36   37 1
    61   37   57 1
    62   37   58 1
    63   38   59 1
    64   39   60 1
@<TRIPOS>MOLECULE
CHEMBL194482
   57    61     0     0     0
SMALL
USER_CHARGES

@<TRIPOS>ATOM
      1 C1         -0.0167    1.3792    0.0096 C.ar      1 <0>        -0.1025
      2 C2          1.1683    2.0931    0.0021 C.ar      1 <0>        -0.1153
      3 C3          2.3774    1.4286   -0.0134 C.ar      1 <0>        -0.1020
      4 C4          2.4032    0.0335   -0.0212 C.ar      1 <0>        -0.0840
      5 C5          1.2045   -0.6806   -0.0131 C.ar      1 <0>        -0.1010
      6 C6          0.0021   -0.0041    0.0020 C.ar      1 <0>        -0.1148
      7 C7          3.6950   -0.6848   -0.0384 C.2       1 <0>        -0.0449
      8 C8          4.4943   -0.5772    1.0009 C.2       1 <0>        -0.1898
      9 C9          5.8233   -1.2710    1.0843 C.3       1 <0>         0.0343
     10 N1          6.2689   -1.6856   -0.2511 N.4       1 <0>        -0.3867
     11 C10         5.1971   -2.4623   -0.8938 C.3       1 <0>        -0.0034
     12 C11         4.0456   -1.5174   -1.2408 C.3       1 <0>        -0.1140
     13 C12         7.4741   -2.5169   -0.1311 C.3       1 <0>        -0.0101
     14 C13         8.6201   -1.6750    0.4337 C.3       1 <0>        -0.1468
     15 C14         9.8754   -2.5408    0.5587 C.3       1 <0>        -0.0681
     16 C15        11.0042   -1.7116    1.1150 C.ar      1 <0>        -0.1270
     17 C16        11.8417   -1.0189    0.2546 C.ar      1 <0>        -0.0677
     18 C17        12.8787   -0.2566    0.7484 C.ar      1 <0>        -0.1552
     19 C18        13.0940   -0.1761    2.1210 C.ar      1 <0>         0.1883
     20 C19        12.2453   -0.8774    2.9902 C.ar      1 <0>        -0.0930
     21 C20        11.1970   -1.6400    2.4777 C.ar      1 <0>        -0.0592
     22 C21        12.4743   -0.7916    4.4449 C.ar      1 <0>        -0.0048
     23 C22        11.6653   -1.4656    5.3533 C.ar      1 <0>        -0.1225
     24 C23        11.9186   -1.3557    6.7050 C.ar      1 <0>        -0.0796
     25 C24        12.9720   -0.5790    7.1645 C.ar      1 <0>        -0.1250
     26 C25        13.7847    0.0971    6.2798 C.ar      1 <0>        -0.0451
     27 C26        13.5457   -0.0020    4.9099 C.ar      1 <0>        -0.1410
     28 C27        14.3875    0.7009    3.9304 C.2       1 <0>         0.5566
     29 O1         15.3168    1.3866    4.3136 O.2       1 <0>        -0.5096
     30 N2         14.1374    0.5901    2.6135 N.am      1 <0>        -0.6439
     31 H1         14.7075    1.0630    1.9872 H         1 <0>         0.4181
     32 H2         -0.9604    1.9041    0.0260 H         1 <0>         0.1298
     33 H3          1.1469    3.1729    0.0082 H         1 <0>         0.1301
     34 H4          3.3018    1.9870   -0.0200 H         1 <0>         0.1236
     35 H5          1.2178   -1.7605   -0.0194 H         1 <0>         0.1243
     36 H6         -0.9265   -0.5556    0.0079 H         1 <0>         0.1304
     37 H7          4.1807    0.0380    1.8312 H         1 <0>         0.1505
     38 H8          6.5585   -0.5912    1.5147 H         1 <0>         0.1402
     39 H9          5.7318   -2.1497    1.7228 H         1 <0>         0.1387
     40 H10         5.5771   -2.9272   -1.8035 H         1 <0>         0.1379
     41 H11         4.8408   -3.2312   -0.2083 H         1 <0>         0.1327
     42 H12         3.1757   -2.0990   -1.5459 H         1 <0>         0.1251
     43 H13         4.3502   -0.8642   -2.0585 H         1 <0>         0.1071
     44 H14         7.2735   -3.3533    0.5384 H         1 <0>         0.1320
     45 H15         7.7527   -2.8970   -1.1140 H         1 <0>         0.1339
     46 H16         8.8208   -0.8386   -0.2358 H         1 <0>         0.0896
     47 H17         8.3416   -1.2949    1.4166 H         1 <0>         0.0892
     48 H18         9.6748   -3.3772    1.2282 H         1 <0>         0.0841
     49 H19        10.1540   -2.9209   -0.4242 H         1 <0>         0.0851
     50 H20        11.6806   -1.0771   -0.8117 H         1 <0>         0.1315
     51 H21        13.5253    0.2788    0.0689 H         1 <0>         0.1369
     52 H22        10.5403   -2.1767    3.1465 H         1 <0>         0.1334
     53 H23        10.8430   -2.0716    5.0025 H         1 <0>         0.1321
     54 H24        11.2911   -1.8786    7.4115 H         1 <0>         0.1348
     55 H25        13.1570   -0.5028    8.2259 H         1 <0>         0.1375
     56 H26        14.6023    0.7003    6.6460 H         1 <0>         0.1432
     57 H27         6.4742   -0.8691   -0.8071 H         1 <0>         0.4257
@<TRIPOS>BOND
     1    1    6 ar
     2    1    2 ar
     3    1   32 1
     4    2    3 ar
     5    2   33 1
     6    3    4 ar
     7    3   34 1
     8    4    5 ar
     9    4    7 1
    10    5    6 ar
    11    5   35 1
    12    6   36 1
    13    7   12 1
    14    7    8 2
    15    8    9 1
    16    8   37 1
    17    9   10 1
    18    9   38 1
    19    9   39 1
    20   10   11 1
    21   10   13 1
    22   10   57 1
    23   11   12 1
    24   11   40 1
    25   11   41 1
    26   12   42 1
    27   12   43 1
    28   13   14 1
    29   13   44 1
    30   13   45 1
    31   14   15 1
    32   14   46 1
    33   14   47 1
    34   15   16 1
    35   15   48 1
    36   15   49 1
    37   16   21 ar
    38   16   17 ar
    39   17   18 ar
    40   17   50 1
    41   18   19 ar
    42   18   51 1
    43   19   30 1
    44   19   20 ar
    45   20   21 ar
    46   20   22 1
    47   21   52 1
    48   22   27 ar
    49   22   23 ar
    50   23   24 ar
    51   23   53 1
    52   24   25 ar
    53   24   54 1
    54   25   26 ar
    55   25   55 1
    56   26   27 ar
    57   26   56 1
    58   27   28 1
    59   28   29 2
    60   28   30 am
    61   30   31 1
@<TRIPOS>MOLECULE
CHEMBL196504
   60    64     0     0     0
SMALL
USER_CHARGES

@<TRIPOS>ATOM
      1 C1         -0.0167    1.3792    0.0096 C.ar      1 <0>        -0.1025
      2 C2          1.1683    2.0931    0.0021 C.ar      1 <0>        -0.1153
      3 C3          2.3774    1.4286   -0.0134 C.ar      1 <0>        -0.1020
      4 C4          2.4032    0.0335   -0.0212 C.ar      1 <0>        -0.0841
      5 C5          1.2045   -0.6806   -0.0131 C.ar      1 <0>        -0.1011
      6 C6          0.0021   -0.0041    0.0020 C.ar      1 <0>        -0.1148
      7 C7          3.6950   -0.6848   -0.0384 C.2       1 <0>        -0.0448
      8 C8          4.4943   -0.5772    1.0009 C.2       1 <0>        -0.1900
      9 C9          5.8233   -1.2710    1.0843 C.3       1 <0>         0.0347
     10 N1          6.2689   -1.6856   -0.2511 N.4       1 <0>        -0.3868
     11 C10         5.1971   -2.4623   -0.8938 C.3       1 <0>        -0.0037
     12 C11         4.0456   -1.5174   -1.2408 C.3       1 <0>        -0.1139
     13 C12         7.4741   -2.5169   -0.1311 C.3       1 <0>        -0.0097
     14 C13         8.6201   -1.6750    0.4337 C.3       1 <0>        -0.1503
     15 C14         9.8754   -2.5408    0.5587 C.3       1 <0>        -0.1135
     16 C15        11.0214   -1.6990    1.1235 C.3       1 <0>        -0.0739
     17 C16        12.2578   -2.5517    1.2465 C.ar      1 <0>        -0.1205
     18 C17        12.4982   -3.2552    2.4166 C.ar      1 <0>        -0.0691
     19 C18        13.6247   -4.0394    2.5441 C.ar      1 <0>        -0.1554
     20 C19        14.5339   -4.1315    1.4945 C.ar      1 <0>         0.1838
     21 C20        14.2891   -3.4189    0.3112 C.ar      1 <0>        -0.0937
     22 C21        13.1430   -2.6341    0.1935 C.ar      1 <0>        -0.0608
     23 C22        15.2532   -3.5169   -0.8008 C.ar      1 <0>        -0.0028
     24 C23        15.0623   -2.8326   -1.9963 C.ar      1 <0>        -0.1227
     25 C24        15.9920   -2.9547   -3.0084 C.ar      1 <0>        -0.0800
     26 C25        17.1140   -3.7535   -2.8432 C.ar      1 <0>        -0.1265
     27 C26        17.3205   -4.4400   -1.6657 C.ar      1 <0>        -0.0456
     28 C27        16.3929   -4.3293   -0.6309 C.ar      1 <0>        -0.1417
     29 C28        16.5732   -5.0427    0.6421 C.2       1 <0>         0.5568
     30 N2         15.6648   -4.9200    1.6263 N.am      1 <0>        -0.6433
     31 O1         17.5507   -5.7487    0.8062 O.2       1 <0>        -0.5125
     32 H1         -0.9604    1.9041    0.0260 H         1 <0>         0.1299
     33 H2          1.1469    3.1729    0.0082 H         1 <0>         0.1302
     34 H3          3.3018    1.9870   -0.0200 H         1 <0>         0.1237
     35 H4          1.2178   -1.7605   -0.0194 H         1 <0>         0.1242
     36 H5         -0.9265   -0.5556    0.0079 H         1 <0>         0.1304
     37 H6          4.1807    0.0380    1.8312 H         1 <0>         0.1507
     38 H7          6.5585   -0.5912    1.5147 H         1 <0>         0.1404
     39 H8          5.7318   -2.1497    1.7228 H         1 <0>         0.1383
     40 H9          5.5771   -2.9272   -1.8035 H         1 <0>         0.1376
     41 H10         4.8408   -3.2312   -0.2083 H         1 <0>         0.1325
     42 H11         3.1757   -2.0990   -1.5459 H         1 <0>         0.1251
     43 H12         4.3502   -0.8642   -2.0585 H         1 <0>         0.1072
     44 H13         7.2735   -3.3533    0.5384 H         1 <0>         0.1311
     45 H14         7.7527   -2.8970   -1.1140 H         1 <0>         0.1327
     46 H15         8.8208   -0.8386   -0.2358 H         1 <0>         0.0883
     47 H16         8.3416   -1.2949    1.4166 H         1 <0>         0.0884
     48 H17         9.6748   -3.3772    1.2282 H         1 <0>         0.0765
     49 H18        10.1540   -2.9209   -0.4242 H         1 <0>         0.0763
     50 H19        11.2220   -0.8626    0.4539 H         1 <0>         0.0768
     51 H20        10.7428   -1.3189    2.1063 H         1 <0>         0.0776
     52 H21        11.7971   -3.1881    3.2353 H         1 <0>         0.1305
     53 H22        13.8022   -4.5829    3.4603 H         1 <0>         0.1357
     54 H23        12.9514   -2.0890   -0.7189 H         1 <0>         0.1326
     55 H24        14.1909   -2.2092   -2.1319 H         1 <0>         0.1324
     56 H25        15.8448   -2.4241   -3.9374 H         1 <0>         0.1342
     57 H26        17.8325   -3.8387   -3.6449 H         1 <0>         0.1368
     58 H27        18.1964   -5.0604   -1.5455 H         1 <0>         0.1427
     59 H28        15.8066   -5.4003    2.4571 H         1 <0>         0.4175
     60 H29         6.4742   -0.8691   -0.8071 H         1 <0>         0.4254
@<TRIPOS>BOND
     1    1    6 ar
     2    1    2 ar
     3    1   32 1
     4    2    3 ar
     5    2   33 1
     6    3    4 ar
     7    3   34 1
     8    4    5 ar
     9    4    7 1
    10    5    6 ar
    11    5   35 1
    12    6   36 1
    13    7   12 1
    14    7    8 2
    15    8    9 1
    16    8   37 1
    17    9   10 1
    18    9   38 1
    19    9   39 1
    20   10   11 1
    21   10   13 1
    22   10   60 1
    23   11   12 1
    24   11   40 1
    25   11   41 1
    26   12   42 1
    27   12   43 1
    28   13   14 1
    29   13   44 1
    30   13   45 1
    31   14   15 1
    32   14   46 1
    33   14   47 1
    34   15   16 1
    35   15   48 1
    36   15   49 1
    37   16   17 1
    38   16   50 1
    39   16   51 1
    40   17   22 ar
    41   17   18 ar
    42   18   19 ar
    43   18   52 1
    44   19   20 ar
    45   19   53 1
    46   20   30 1
    47   20   21 ar
    48   21   22 ar
    49   21   23 1
    50   22   54 1
    51   23   28 ar
    52   23   24 ar
    53   24   25 ar
    54   24   55 1
    55   25   26 ar
    56   25   56 1
    57   26   27 ar
    58   26   57 1
    59   27   28 ar
    60   27   58 1
    61   28   29 1
    62   29   30 am
    63   29   31 2
    64   30   59 1
@<TRIPOS>MOLECULE
CHEMBL506871
   35    37     0     0     0
SMALL
USER_CHARGES

@<TRIPOS>ATOM
      1 C1         -0.0187    1.5258    0.0104 C.3       1 <0>        -0.1756
      2 C2          0.0021   -0.0041    0.0020 C.3       1 <0>         0.1550
      3 C3         -1.4366   -0.5486    0.0737 C.3       1 <0>        -0.1378
      4 C4         -1.4976   -1.3558    1.3908 C.3       1 <0>        -0.1434
      5 C5         -0.3327   -0.7569    2.2185 C.3       1 <0>        -0.0035
      6 N1          0.7156   -0.5049    1.1968 N.4       1 <0>        -0.5066
      7 C6          0.6818   -0.5012   -1.2477 C.2       1 <0>         0.2336
      8 N2          0.2788   -0.2262   -2.5157 N.pl3     1 <0>        -0.5720
      9 H1         -0.4837    0.3154   -2.7731 H         1 <0>         0.4323
     10 C7          1.1589   -0.8623   -3.3698 C.ar      1 <0>         0.0565
     11 C8          1.2674   -0.9528   -4.7501 C.ar      1 <0>        -0.0800
     12 C9          2.2891   -1.6871   -5.3194 C.ar      1 <0>        -0.0908
     13 C10         3.2150   -2.3397   -4.5263 C.ar      1 <0>        -0.0755
     14 C11         3.1297   -2.2651   -3.1385 C.ar      1 <0>        -0.0837
     15 C12         2.0894   -1.5178   -2.5469 C.ar      1 <0>         0.1023
     16 N3          1.7456   -1.2531   -1.2710 N.2       1 <0>        -0.4644
     17 C13         4.1178   -2.9609   -2.2946 C.2       1 <0>         0.5622
     18 O1          4.0385   -2.8924   -1.0831 O.2       1 <0>        -0.5248
     19 N4          5.1093   -3.6732   -2.8658 N.am      1 <0>        -0.8479
     20 H2          1.0039    1.9031    0.0027 H         1 <0>         0.0917
     21 H3         -0.5459    1.8868   -0.8726 H         1 <0>         0.1056
     22 H4         -0.5289    1.8773    0.9072 H         1 <0>         0.1016
     23 H5         -2.1515    0.2737    0.1005 H         1 <0>         0.1189
     24 H6         -1.6380   -1.1985   -0.7779 H         1 <0>         0.1059
     25 H7         -2.4505   -1.1982    1.8960 H         1 <0>         0.1238
     26 H8         -1.3309   -2.4162    1.2014 H         1 <0>         0.1018
     27 H9         -0.6382    0.1750    2.6943 H         1 <0>         0.1401
     28 H10         0.0187   -1.4725    2.9618 H         1 <0>         0.1454
     29 H11         1.2015   -1.3617    0.9782 H         1 <0>         0.4463
     30 H12         0.5507   -0.4479   -5.3808 H         1 <0>         0.1394
     31 H13         2.3654   -1.7527   -6.3947 H         1 <0>         0.1505
     32 H14         4.0084   -2.9106   -4.9858 H         1 <0>         0.1444
     33 H15         5.1726   -3.7279   -3.8322 H         1 <0>         0.4025
     34 H16         5.7595   -4.1311   -2.3105 H         1 <0>         0.4107
     35 H17         1.3664    0.1904    1.5303 H         1 <0>         0.4352
@<TRIPOS>BOND
     1    1    2 1
     2    1   20 1
     3    1   21 1
     4    1   22 1
     5    2    6 1
     6    2    3 1
     7    2    7 1
     8    3    4 1
     9    3   23 1
    10    3   24 1
    11    4    5 1
    12    4   25 1
    13    4   26 1
    14    5    6 1
    15    5   27 1
    16    5   28 1
    17    6   29 1
    18    6   35 1
    19    7   16 2
    20    7    8 1
    21    8    9 1
    22    8   10 1
    23   10   15 ar
    24   10   11 ar
    25   11   12 ar
    26   11   30 1
    27   12   13 ar
    28   12   31 1
    29   13   14 ar
    30   13   32 1
    31   14   15 ar
    32   14   17 1
    33   15   16 1
    34   17   18 2
    35   17   19 am
    36   19   33 1
    37   19   34 1
@<TRIPOS>MOLECULE
CHEMBL204866
   64    68     0     0     0
SMALL
USER_CHARGES

@<TRIPOS>ATOM
      1 C1         -0.1193    2.1526    0.8993 C.3       1 <0>         0.0361
      2 O1          0.0888    0.7552    0.6852 O.3       1 <0>        -0.2963
      3 C2          0.1569   -0.0335    1.7872 C.ar      1 <0>         0.3511
      4 C3          0.3634   -1.3989    1.6421 C.ar      1 <0>        -0.1355
      5 C4          0.4313   -2.1979    2.7849 C.ar      1 <0>        -0.0324
      6 C5          0.2870   -1.5818    4.0327 C.ar      1 <0>        -0.1862
      7 C6          0.0843   -0.2163    4.0889 C.ar      1 <0>         0.2190
      8 N1          0.0312    0.5079    2.9867 N.ar      1 <0>        -0.5228
      9 Cl1        -0.0966    0.5590    5.6316 Cl        1 <0>        -0.0121
     10 C7          0.6497   -3.6596    2.6791 C.2       1 <0>         0.5667
     11 O2          0.0310   -4.3086    1.8591 O.2       1 <0>        -0.5030
     12 N2          1.5348   -4.2693    3.4924 N.am      1 <0>        -0.5884
     13 C8          1.8683   -5.6411    3.3305 C.3       1 <0>         0.1134
     14 C9          0.8758   -6.6379    4.0136 C.3       1 <0>        -0.1485
     15 C10         0.4339   -5.9969    5.3696 C.3       1 <0>         0.1133
     16 N3          1.4628   -5.2993    6.0582 N.am      1 <0>        -0.5947
     17 C11         1.5326   -3.8290    5.8583 C.3       1 <0>         0.0707
     18 C12         2.2094   -3.5353    4.5938 C.3       1 <0>         0.0664
     19 C13         2.3364   -5.9432    6.8574 C.2       1 <0>         0.5648
     20 O3          2.3265   -7.1573    6.9151 O.2       1 <0>        -0.5174
     21 C14         3.3068   -5.1727    7.6639 C.ar      1 <0>        -0.1246
     22 C15         3.4879   -5.4706    9.0157 C.ar      1 <0>        -0.0647
     23 C16         4.3952   -4.7482    9.7624 C.ar      1 <0>        -0.1159
     24 C17         5.1248   -3.7299    9.1745 C.ar      1 <0>        -0.0797
     25 C18         4.9502   -3.4296    7.8354 C.ar      1 <0>        -0.0781
     26 C19         4.0500   -4.1483    7.0758 C.ar      1 <0>        -0.0900
     27 C20         5.7487   -2.3186    7.2037 C.3       1 <0>        -0.0193
     28 C21         7.0356   -2.8759    6.6520 C.2       1 <0>         0.1357
     29 C22         7.9924   -1.9888    5.9902 C.ar      1 <0>        -0.0603
     30 C23         7.7531   -0.6206    5.8489 C.ar      1 <0>        -0.0981
     31 C24         8.6783    0.1671    5.2229 C.ar      1 <0>        -0.0870
     32 C25         9.8558   -0.3746    4.7236 C.ar      1 <0>        -0.1102
     33 C26        10.1188   -1.7211    4.8481 C.ar      1 <0>        -0.0543
     34 C27         9.1899   -2.5439    5.4838 C.ar      1 <0>        -0.1254
     35 C28         9.4117   -3.9857    5.6489 C.2       1 <0>         0.5281
     36 N4          8.4680   -4.7199    6.2745 N.am      1 <0>        -0.5336
     37 N5          7.2976   -4.1435    6.7689 N.2       1 <0>        -0.2180
     38 O4         10.4281   -4.5093    5.2289 O.2       1 <0>        -0.5196
     39 H1          0.6990    2.5544    1.4969 H         1 <0>         0.0640
     40 H2         -0.1538    2.6662   -0.0614 H         1 <0>         0.1036
     41 H3         -1.0617    2.3031    1.4259 H         1 <0>         0.0642
     42 H4          0.4696   -1.8361    0.6603 H         1 <0>         0.1603
     43 H5          0.3332   -2.1659    4.9400 H         1 <0>         0.1576
     44 H6          1.9022   -5.8644    2.2642 H         1 <0>         0.0775
     45 H7          2.8627   -5.8057    3.7454 H         1 <0>         0.0750
     46 H8          0.0060   -6.7914    3.3749 H         1 <0>         0.0835
     47 H9          1.3742   -7.5895    4.1982 H         1 <0>         0.0840
     48 H10        -0.3822   -5.3017    5.1728 H         1 <0>         0.0723
     49 H11         0.0590   -6.7879    6.0192 H         1 <0>         0.0763
     50 H12         0.5234   -3.4177    5.8351 H         1 <0>         0.0898
     51 H13         2.0890   -3.3772    6.6795 H         1 <0>         0.1128
     52 H14         3.2507   -3.8515    4.6560 H         1 <0>         0.0938
     53 H15         2.1672   -2.4644    4.3954 H         1 <0>         0.1081
     54 H16         2.9186   -6.2646    9.4758 H         1 <0>         0.1300
     55 H17         4.5362   -4.9776   10.8083 H         1 <0>         0.1312
     56 H18         5.8334   -3.1668    9.7637 H         1 <0>         0.1267
     57 H19         3.9176   -3.9156    6.0295 H         1 <0>         0.1283
     58 H20         5.1710   -1.8700    6.3955 H         1 <0>         0.1059
     59 H21         5.9732   -1.5605    7.9540 H         1 <0>         0.1099
     60 H22         6.8412   -0.1868    6.2320 H         1 <0>         0.1417
     61 H23         8.4910    1.2252    5.1148 H         1 <0>         0.1366
     62 H24        10.5726    0.2666    4.2322 H         1 <0>         0.1375
     63 H25        11.0365   -2.1356    4.4575 H         1 <0>         0.1435
     64 H26         8.6088   -5.6730    6.3866 H         1 <0>         0.4371
@<TRIPOS>BOND
     1    1    2 1
     2    1   39 1
     3    1   40 1
     4    1   41 1
     5    2    3 1
     6    3    8 ar
     7    3    4 ar
     8    4    5 ar
     9    4   42 1
    10    5    6 ar
    11    5   10 1
    12    6    7 ar
    13    6   43 1
    14    7    8 ar
    15    7    9 1
    16   10   11 2
    17   10   12 am
    18   12   18 1
    19   12   13 1
    20   13   14 1
    21   13   44 1
    22   13   45 1
    23   14   15 1
    24   14   46 1
    25   14   47 1
    26   15   16 1
    27   15   48 1
    28   15   49 1
    29   16   17 1
    30   16   19 am
    31   17   18 1
    32   17   50 1
    33   17   51 1
    34   18   52 1
    35   18   53 1
    36   19   20 2
    37   19   21 1
    38   21   26 ar
    39   21   22 ar
    40   22   23 ar
    41   22   54 1
    42   23   24 ar
    43   23   55 1
    44   24   25 ar
    45   24   56 1
    46   25   26 ar
    47   25   27 1
    48   26   57 1
    49   27   28 1
    50   27   58 1
    51   27   59 1
    52   28   37 2
    53   28   29 1
    54   29   34 ar
    55   29   30 ar
    56   30   31 ar
    57   30   60 1
    58   31   32 ar
    59   31   61 1
    60   32   33 ar
    61   32   62 1
    62   33   34 ar
    63   33   63 1
    64   34   35 1
    65   35   36 am
    66   35   38 2
    67   36   37 1
    68   36   64 1
@<TRIPOS>MOLECULE
CHEMBL480227
   43    46     0     0     0
SMALL
USER_CHARGES

@<TRIPOS>ATOM
      1 C1         -0.0167    1.3768    0.0096 C.ar      1 <0>        -0.1468
      2 C2          1.1610    2.0941    0.0022 C.ar      1 <0>        -0.0270
      3 C3          2.3829    1.4199    0.0277 C.ar      1 <0>        -0.1311
      4 C4          3.7804    1.8608    0.0266 C.2       1 <0>        -0.1165
      5 C5          4.5346    0.7597    0.1421 C.2       1 <0>        -0.0074
      6 N1          3.7371   -0.3542    0.2149 N.pl3     1 <0>        -0.4790
      7 C6          2.4150    0.0150    0.0669 C.ar      1 <0>         0.1523
      8 C7          1.2130   -0.7041   -0.0099 C.ar      1 <0>        -0.1496
      9 C8          0.0021   -0.0041    0.0020 C.ar      1 <0>        -0.0086
     10 C9          1.1829   -2.1606   -0.1704 C.2       1 <0>         0.5584
     11 O1          0.2639   -2.6347   -0.8101 O.2       1 <0>        -0.5209
     12 N2          2.0921   -3.0146    0.3348 N.am      1 <0>        -0.7223
     13 C10         3.1846   -2.5638    1.1647 C.3       1 <0>         0.0959
     14 C11         4.1851   -1.7152    0.4229 C.3       1 <0>         0.0811
     15 C12         6.0409    0.7465    0.1854 C.3       1 <0>         0.0668
     16 N3          6.4905    0.7393    1.5839 N.4       1 <0>        -0.3854
     17 C13         6.0860    1.9921    2.2329 C.3       1 <0>        -0.0131
     18 C14         6.4805    1.9559    3.7109 C.3       1 <0>        -0.1441
     19 C15         7.9983    1.7873    3.8245 C.3       1 <0>        -0.1396
     20 C16         8.4180    0.5162    3.0805 C.3       1 <0>        -0.1455
     21 C17         7.9517    0.6058    1.6258 C.3       1 <0>        -0.0082
     22 H1         -0.9617    1.8993    0.0260 H         1 <0>         0.1434
     23 H2          1.1380    3.1736   -0.0236 H         1 <0>         0.1389
     24 H3          4.1343    2.8781   -0.0526 H         1 <0>         0.1637
     25 H4         -0.9297   -0.5501    0.0054 H         1 <0>         0.1454
     26 H5          2.0111   -3.9605    0.1360 H         1 <0>         0.4146
     27 H6          2.7783   -1.9826    1.9925 H         1 <0>         0.0797
     28 H7          3.6977   -3.4353    1.5713 H         1 <0>         0.1157
     29 H8          4.3804   -2.1715   -0.5476 H         1 <0>         0.0899
     30 H9          5.1154   -1.6945    0.9905 H         1 <0>         0.0867
     31 H10         6.4111   -0.1455   -0.3199 H         1 <0>         0.1376
     32 H11         6.4266    1.6344   -0.3156 H         1 <0>         0.1548
     33 H12         6.5832    2.8305    1.7450 H         1 <0>         0.1315
     34 H13         5.0059    2.1123    2.1484 H         1 <0>         0.1336
     35 H14         6.1809    2.8877    4.1905 H         1 <0>         0.1131
     36 H15         5.9836    1.1179    4.1998 H         1 <0>         0.0850
     37 H16         8.4951    2.6501    3.3809 H         1 <0>         0.0833
     38 H17         8.2782    1.7041    4.8747 H         1 <0>         0.0945
     39 H18         9.5032    0.4190    3.1095 H         1 <0>         0.1139
     40 H19         7.9613   -0.3516    3.5563 H         1 <0>         0.0862
     41 H20         8.2490   -0.2975    1.0932 H         1 <0>         0.1299
     42 H21         8.4091    1.4738    1.1509 H         1 <0>         0.1327
     43 H22         6.0687   -0.0392    2.0677 H         1 <0>         0.4168
@<TRIPOS>BOND
     1    1    9 ar
     2    1    2 ar
     3    1   22 1
     4    2    3 ar
     5    2   23 1
     6    3    7 ar
     7    3    4 1
     8    4    5 2
     9    4   24 1
    10    5    6 1
    11    5   15 1
    12    6   14 1
    13    6    7 1
    14    7    8 ar
    15    8    9 ar
    16    8   10 1
    17    9   25 1
    18   10   11 2
    19   10   12 am
    20   12   13 1
    21   12   26 1
    22   13   14 1
    23   13   27 1
    24   13   28 1
    25   14   29 1
    26   14   30 1
    27   15   16 1
    28   15   31 1
    29   15   32 1
    30   16   21 1
    31   16   17 1
    32   16   43 1
    33   17   18 1
    34   17   33 1
    35   17   34 1
    36   18   19 1
    37   18   35 1
    38   18   36 1
    39   19   20 1
    40   19   37 1
    41   19   38 1
    42   20   21 1
    43   20   39 1
    44   20   40 1
    45   21   41 1
    46   21   42 1
@<TRIPOS>MOLECULE
CHEMBL446240
   20    21     0     0     0
SMALL
USER_CHARGES

@<TRIPOS>ATOM
      1 C1         -0.0167    1.3834    0.0096 C.ar      1 <0>        -0.0838
      2 C2          1.1565    2.1055    0.0023 C.ar      1 <0>        -0.1078
      3 C3          2.3801    1.4358   -0.0129 C.ar      1 <0>        -0.1081
      4 C4          2.4069    0.0230   -0.0207 C.ar      1 <0>        -0.0696
      5 C5          3.7068   -0.6484   -0.0372 C.2       1 <0>        -0.1913
      6 C6          4.8300    0.0878   -0.0445 C.2       1 <0>         0.0974
      7 N1          4.8093    1.4540   -0.0365 N.am      1 <0>        -0.6327
      8 H1          5.6514    1.9353   -0.0420 H         1 <0>         0.4145
      9 C7          3.6587    2.1556   -0.0217 C.2       1 <0>         0.5453
     10 O1          3.6799    3.3734   -0.0158 O.2       1 <0>        -0.5267
     11 C8          1.2022   -0.6935   -0.0130 C.ar      1 <0>         0.2138
     12 C9          0.0021   -0.0041    0.0020 C.ar      1 <0>        -0.1701
     13 N2          1.2127   -2.0889   -0.0210 N.pl3     1 <0>        -0.8717
     14 H2         -0.9630    1.9038    0.0260 H         1 <0>         0.1307
     15 H3          1.1290    3.1852    0.0080 H         1 <0>         0.1346
     16 H4          3.7625   -1.7270   -0.0432 H         1 <0>         0.1395
     17 H5          5.7840   -0.4183   -0.0566 H         1 <0>         0.1584
     18 H6         -0.9289   -0.5514    0.0079 H         1 <0>         0.1269
     19 H7          2.0563   -2.5675   -0.0319 H         1 <0>         0.3991
     20 H8          0.3763   -2.5802   -0.0156 H         1 <0>         0.4016
@<TRIPOS>BOND
     1    1   12 ar
     2    1    2 ar
     3    1   14 1
     4    2    3 ar
     5    2   15 1
     6    3    9 1
     7    3    4 ar
     8    4    5 1
     9    4   11 ar
    10    5    6 2
    11    5   16 1
    12    6    7 1
    13    6   17 1
    14    7    8 1
    15    7    9 am
    16    9   10 2
    17   11   12 ar
    18   11   13 1
    19   12   18 1
    20   13   19 1
    21   13   20 1
@<TRIPOS>MOLECULE
CHEMBL459362
   52    55     0     0     0
SMALL
USER_CHARGES

@<TRIPOS>ATOM
      1 C1          0.0730    1.5262    0.0197 C.3       1 <0>        -0.1602
      2 C2          0.0680   -0.0038    0.0087 C.3       1 <0>         0.0674
      3 C3         -1.3374   -0.5238    0.2052 C.2       1 <0>        -0.1344
      4 C4         -1.4818   -0.9253    1.4619 C.2       1 <0>        -0.0919
      5 C5         -0.1843   -0.7057    2.2052 C.3       1 <0>         0.1184
      6 N1          0.8464   -0.5275    1.1557 N.3       1 <0>        -0.2894
      7 O1          1.8658    0.4324    1.5795 O.3       1 <0>        -0.4210
      8 C6         -0.2779    0.5501    3.0742 C.3       1 <0>        -0.1572
      9 C7          0.1443   -1.9252    3.0687 C.3       1 <0>        -0.1269
     10 C8         -2.7142   -1.4961    2.0417 C.ar      1 <0>        -0.0106
     11 C9         -3.3979   -0.8065    3.0461 C.ar      1 <0>        -0.1048
     12 C10        -4.5461   -1.3385    3.5868 C.ar      1 <0>        -0.0607
     13 C11        -5.0284   -2.5680    3.1309 C.ar      1 <0>        -0.0318
     14 C12        -4.3448   -3.2573    2.1260 C.ar      1 <0>        -0.0970
     15 C13        -3.1995   -2.7227    1.5818 C.ar      1 <0>        -0.1019
     16 C14        -6.2607   -3.1394    3.7116 C.2       1 <0>         0.3303
     17 N2         -6.8218   -4.3332    3.3498 N.pl3     1 <0>        -0.5935
     18 H1         -6.4878   -4.9472    2.6773 H         1 <0>         0.4251
     19 C15        -7.9545   -4.4993    4.1243 C.ar      1 <0>         0.0401
     20 C16        -8.9196   -5.4913    4.2139 C.ar      1 <0>        -0.0790
     21 C17        -9.9621   -5.3677    5.1122 C.ar      1 <0>        -0.1128
     22 C18       -10.0591   -4.2586    5.9320 C.ar      1 <0>        -0.0851
     23 C19        -9.1043   -3.2471    5.8636 C.ar      1 <0>        -0.0906
     24 C20        -8.0343   -3.3631    4.9488 C.ar      1 <0>         0.1063
     25 N3         -6.9803   -2.5810    4.6572 N.2       1 <0>        -0.4535
     26 C21        -9.2091   -2.0661    6.7384 C.2       1 <0>         0.5577
     27 O2         -8.3725   -1.1858    6.6744 O.2       1 <0>        -0.5111
     28 N4        -10.2322   -1.9614    7.6095 N.am      1 <0>        -0.8552
     29 C22         0.6484   -0.5251   -1.3075 C.3       1 <0>        -0.1290
     30 H2          1.1008    1.8858    0.0682 H         1 <0>         0.0693
     31 H3         -0.3993    1.8976   -0.8897 H         1 <0>         0.0656
     32 H4         -0.4789    1.8851    0.8884 H         1 <0>         0.0653
     33 H5         -2.1026   -0.5624   -0.5560 H         1 <0>         0.1437
     34 H6          2.5085    0.6532    0.8915 H         1 <0>         0.3804
     35 H7         -1.0041    0.3876    3.8706 H         1 <0>         0.0636
     36 H8          0.6980    0.7637    3.5104 H         1 <0>         0.0761
     37 H9         -0.5941    1.3938    2.4607 H         1 <0>         0.0616
     38 H10         0.2427   -2.8049    2.4327 H         1 <0>         0.0623
     39 H11         1.0813   -1.7534    3.5986 H         1 <0>         0.0644
     40 H12        -0.6568   -2.0861    3.7901 H         1 <0>         0.0641
     41 H13        -3.0251    0.1438    3.3985 H         1 <0>         0.1332
     42 H14        -5.0742   -0.8058    4.3638 H         1 <0>         0.1458
     43 H15        -4.7175   -4.2077    1.7735 H         1 <0>         0.1233
     44 H16        -2.6733   -3.2536    0.8022 H         1 <0>         0.1321
     45 H17        -8.8563   -6.3629    3.5792 H         1 <0>         0.1304
     46 H18       -10.7091   -6.1453    5.1744 H         1 <0>         0.1402
     47 H19       -10.8799   -4.1761    6.6289 H         1 <0>         0.1357
     48 H20       -10.8995   -2.6635    7.6605 H         1 <0>         0.3985
     49 H21       -10.3012   -1.1839    8.1854 H         1 <0>         0.4054
     50 H22         1.6775   -0.1813   -1.4122 H         1 <0>         0.0606
     51 H23         0.6276   -1.6149   -1.3074 H         1 <0>         0.0652
     52 H24         0.0537   -0.1503   -2.1405 H         1 <0>         0.0656
@<TRIPOS>BOND
     1    1    2 1
     2    1   30 1
     3    1   31 1
     4    1   32 1
     5    2    6 1
     6    2    3 1
     7    2   29 1
     8    3    4 2
     9    3   33 1
    10    4    5 1
    11    4   10 1
    12    5    6 1
    13    5    8 1
    14    5    9 1
    15    6    7 1
    16    7   34 1
    17    8   35 1
    18    8   36 1
    19    8   37 1
    20    9   38 1
    21    9   39 1
    22    9   40 1
    23   10   15 ar
    24   10   11 ar
    25   11   12 ar
    26   11   41 1
    27   12   13 ar
    28   12   42 1
    29   13   14 ar
    30   13   16 1
    31   14   15 ar
    32   14   43 1
    33   15   44 1
    34   16   25 2
    35   16   17 1
    36   17   18 1
    37   17   19 1
    38   19   24 ar
    39   19   20 ar
    40   20   21 ar
    41   20   45 1
    42   21   22 ar
    43   21   46 1
    44   22   23 ar
    45   22   47 1
    46   23   24 ar
    47   23   26 1
    48   24   25 1
    49   26   27 2
    50   26   28 am
    51   28   48 1
    52   28   49 1
    53   29   50 1
    54   29   51 1
    55   29   52 1
@<TRIPOS>MOLECULE
CHEMBL520924
   53    57     0     0     0
SMALL
USER_CHARGES

@<TRIPOS>ATOM
      1 C1          3.0422    1.7493   -1.1221 C.3       1 <0>        -0.0473
      2 N1          2.2944    0.5564   -0.7026 N.4       1 <0>        -0.3863
      3 C2          2.2343   -0.3982   -1.8167 C.3       1 <0>        -0.0201
      4 C3          1.3586   -1.5911   -1.4191 C.3       1 <0>         0.0884
      5 N2          1.8799   -2.1545   -0.1642 N.am      1 <0>        -0.6296
      6 C4          2.1262   -1.2362    0.9584 C.3       1 <0>         0.0680
      7 C5          2.9657   -0.0601    0.4486 C.3       1 <0>        -0.0221
      8 C6          2.1244   -3.4746   -0.0461 C.2       1 <0>         0.5745
      9 O1          1.8429   -4.2287   -0.9569 O.2       1 <0>        -0.4977
     10 C7          2.7351   -4.0056    1.1914 C.ar      1 <0>        -0.1395
     11 C8          2.2729   -3.5795    2.4388 C.ar      1 <0>        -0.0887
     12 C9          2.8421   -4.0743    3.5951 C.ar      1 <0>        -0.1124
     13 C10         3.8715   -4.9925    3.5271 C.ar      1 <0>        -0.0391
     14 C11         4.3431   -5.4268    2.2868 C.ar      1 <0>        -0.0163
     15 C12         3.7690   -4.9363    1.1161 C.ar      1 <0>        -0.0596
     16 C13         5.4460   -6.4100    2.2160 C.2       1 <0>         0.3127
     17 N3          5.8205   -7.1946    3.1962 N.2       1 <0>        -0.4572
     18 C14         6.8578   -7.9655    2.7870 C.ar      1 <0>         0.0398
     19 C15         7.6902   -8.8783    3.4436 C.ar      1 <0>        -0.0250
     20 C16         8.6982   -9.5112    2.7484 C.ar      1 <0>        -0.1339
     21 C17         8.8813   -9.2801    1.3987 C.ar      1 <0>        -0.0219
     22 C18         8.0547   -8.3850    0.7121 C.ar      1 <0>        -0.1313
     23 C19         7.0771   -7.6835    1.4289 C.ar      1 <0>         0.0861
     24 N4          6.2247   -6.6411    1.1157 N.pl3     1 <0>        -0.4817
     25 C20         6.2210   -5.9340   -0.1430 C.3       1 <0>         0.0784
     26 C21         7.5833   -5.8818   -0.7893 C.3       1 <0>         0.0963
     27 N5          7.9590   -7.1173   -1.4349 N.am      1 <0>        -0.7198
     28 C22         8.2091   -8.2352   -0.7379 C.2       1 <0>         0.5607
     29 O2          8.5810   -9.2079   -1.3656 O.2       1 <0>        -0.5265
     30 H1          4.0558    1.4627   -1.4024 H         1 <0>         0.1222
     31 H2          2.5448    2.2079   -1.9768 H         1 <0>         0.1267
     32 H3          3.0807    2.4622   -0.2985 H         1 <0>         0.1268
     33 H4          1.8065    0.0910   -2.6918 H         1 <0>         0.1464
     34 H5          3.2399   -0.7476   -2.0506 H         1 <0>         0.1335
     35 H6          0.3311   -1.2583   -1.2723 H         1 <0>         0.0985
     36 H7          1.3931   -2.3480   -2.2026 H         1 <0>         0.1373
     37 H8          1.1762   -0.8676    1.3454 H         1 <0>         0.1020
     38 H9          2.6683   -1.7585    1.7467 H         1 <0>         0.1427
     39 H10         3.9492   -0.4197    0.1461 H         1 <0>         0.1342
     40 H11         3.0769    0.6782    1.2427 H         1 <0>         0.1468
     41 H12         1.4686   -2.8611    2.4988 H         1 <0>         0.1371
     42 H13         2.4811   -3.7416    4.5570 H         1 <0>         0.1465
     43 H14         4.3130   -5.3752    4.4354 H         1 <0>         0.1508
     44 H15         4.1270   -5.2726    0.1542 H         1 <0>         0.1383
     45 H16         7.5436   -9.0865    4.4931 H         1 <0>         0.1426
     46 H17         9.3535  -10.1964    3.2656 H         1 <0>         0.1461
     47 H18         9.6697   -9.7946    0.8695 H         1 <0>         0.1463
     48 H19         5.5282   -6.4301   -0.8228 H         1 <0>         0.0888
     49 H20         5.8735   -4.9150    0.0274 H         1 <0>         0.1054
     50 H21         7.5874   -5.0840   -1.5320 H         1 <0>         0.1123
     51 H22         8.3241   -5.6477   -0.0248 H         1 <0>         0.0807
     52 H23         8.0407   -7.1351   -2.4013 H         1 <0>         0.4124
     53 H24         1.3573    0.8233   -0.4407 H         1 <0>         0.4265
@<TRIPOS>BOND
     1    1    2 1
     2    1   30 1
     3    1   31 1
     4    1   32 1
     5    2    7 1
     6    2    3 1
     7    2   53 1
     8    3    4 1
     9    3   33 1
    10    3   34 1
    11    4    5 1
    12    4   35 1
    13    4   36 1
    14    5    6 1
    15    5    8 am
    16    6    7 1
    17    6   37 1
    18    6   38 1
    19    7   39 1
    20    7   40 1
    21    8    9 2
    22    8   10 1
    23   10   15 ar
    24   10   11 ar
    25   11   12 ar
    26   11   41 1
    27   12   13 ar
    28   12   42 1
    29   13   14 ar
    30   13   43 1
    31   14   15 ar
    32   14   16 1
    33   15   44 1
    34   16   24 1
    35   16   17 2
    36   17   18 1
    37   18   23 ar
    38   18   19 ar
    39   19   20 ar
    40   19   45 1
    41   20   21 ar
    42   20   46 1
    43   21   22 ar
    44   21   47 1
    45   22   28 1
    46   22   23 ar
    47   23   24 1
    48   24   25 1
    49   25   26 1
    50   25   48 1
    51   25   49 1
    52   26   27 1
    53   26   50 1
    54   26   51 1
    55   27   28 am
    56   27   52 1
    57   28   29 2
@<TRIPOS>MOLECULE
CHEMBL520924__1
   52    56     0     0     0
SMALL
USER_CHARGES

@<TRIPOS>ATOM
      1 C1          3.0344    1.6227   -1.2368 C.3       1 <0>         0.0242
      2 N1          2.2973    0.4299   -0.7988 N.3       1 <0>        -0.5433
      3 C2          2.1254   -0.5191   -1.9068 C.3       1 <0>         0.0402
      4 C3          1.2021   -1.6580   -1.4609 C.3       1 <0>         0.1160
      5 N2          1.7418   -2.2392   -0.2223 N.am      1 <0>        -0.6071
      6 C4          2.0691   -1.3313    0.8875 C.3       1 <0>         0.0962
      7 C5          2.9583   -0.2053    0.3491 C.3       1 <0>         0.0389
      8 C6          1.9310   -3.5687   -0.1072 C.2       1 <0>         0.5617
      9 O1          1.5839   -4.3119   -1.0042 O.2       1 <0>        -0.5286
     10 C7          2.5609   -4.1232    1.1102 C.ar      1 <0>        -0.1252
     11 C8          2.1593   -3.6768    2.3715 C.ar      1 <0>        -0.0767
     12 C9          2.7464   -4.1935    3.5090 C.ar      1 <0>        -0.1184
     13 C10         3.7340   -5.1537    3.4086 C.ar      1 <0>        -0.0455
     14 C11         4.1447   -5.6087    2.1541 C.ar      1 <0>        -0.0318
     15 C12         3.5521   -5.0961    1.0023 C.ar      1 <0>        -0.0605
     16 C13         5.2029   -6.6369    2.0485 C.2       1 <0>         0.3290
     17 N3          5.5774   -7.4354    3.0174 N.2       1 <0>        -0.4660
     18 C14         6.5674   -8.2492    2.5752 C.ar      1 <0>         0.0421
     19 C15         7.3830   -9.1952    3.2056 C.ar      1 <0>        -0.0284
     20 C16         8.3397   -9.8701    2.4783 C.ar      1 <0>        -0.1368
     21 C17         8.4865   -9.6481    1.1226 C.ar      1 <0>        -0.0288
     22 C18         7.6750   -8.7201    0.4622 C.ar      1 <0>        -0.1286
     23 C19         6.7521   -7.9779    1.2098 C.ar      1 <0>         0.0823
     24 N4          5.9336   -6.9013    0.9231 N.pl3     1 <0>        -0.4807
     25 C20         5.9166   -6.1959   -0.3365 C.3       1 <0>         0.0754
     26 C21         7.2573   -6.2011   -1.0285 C.3       1 <0>         0.0958
     27 N5          7.5593   -7.4518   -1.6834 N.am      1 <0>        -0.7178
     28 C22         7.7863   -8.5784   -0.9926 C.2       1 <0>         0.5616
     29 O2          8.0961   -9.5664   -1.6301 O.2       1 <0>        -0.5331
     30 H1          4.0453    1.3382   -1.5290 H         1 <0>         0.0267
     31 H2          2.5235    2.0734   -2.0877 H         1 <0>         0.0719
     32 H3          3.0813    2.3416   -0.4188 H         1 <0>         0.0723
     33 H4          1.6832   -0.0054   -2.7604 H         1 <0>         0.0914
     34 H5          3.0956   -0.9272   -2.1901 H         1 <0>         0.0392
     35 H6          0.2015   -1.2672   -1.2763 H         1 <0>         0.0802
     36 H7          1.1623   -2.4223   -2.2371 H         1 <0>         0.0983
     37 H8          1.1518   -0.9091    1.2978 H         1 <0>         0.0839
     38 H9          2.6026   -1.8796    1.6640 H         1 <0>         0.1018
     39 H10         3.9169   -0.6177    0.0345 H         1 <0>         0.0397
     40 H11         3.1201    0.5361    1.1317 H         1 <0>         0.0912
     41 H12         1.3881   -2.9255    2.4569 H         1 <0>         0.1395
     42 H13         2.4324   -3.8450    4.4818 H         1 <0>         0.1428
     43 H14         4.1898   -5.5534    4.3024 H         1 <0>         0.1457
     44 H15         3.8629   -5.4481    0.0297 H         1 <0>         0.1353
     45 H16         7.2634   -9.3959    4.2600 H         1 <0>         0.1402
     46 H17         8.9831  -10.5814    2.9747 H         1 <0>         0.1427
     47 H18         9.2345  -10.1955    0.5683 H         1 <0>         0.1435
     48 H19         5.1813   -6.6635   -0.9913 H         1 <0>         0.0903
     49 H20         5.6178   -5.1632   -0.1570 H         1 <0>         0.1109
     50 H21         7.2694   -5.4049   -1.7729 H         1 <0>         0.1143
     51 H22         8.0326   -5.9972   -0.2900 H         1 <0>         0.0805
     52 H23         7.6076   -7.4740   -2.6520 H         1 <0>         0.4117
@<TRIPOS>BOND
     1    1    2 1
     2    1   30 1
     3    1   31 1
     4    1   32 1
     5    2    7 1
     6    2    3 1
     7    3    4 1
     8    3   33 1
     9    3   34 1
    10    4    5 1
    11    4   35 1
    12    4   36 1
    13    5    6 1
    14    5    8 am
    15    6    7 1
    16    6   37 1
    17    6   38 1
    18    7   39 1
    19    7   40 1
    20    8    9 2
    21    8   10 1
    22   10   15 ar
    23   10   11 ar
    24   11   12 ar
    25   11   41 1
    26   12   13 ar
    27   12   42 1
    28   13   14 ar
    29   13   43 1
    30   14   15 ar
    31   14   16 1
    32   15   44 1
    33   16   24 1
    34   16   17 2
    35   17   18 1
    36   18   23 ar
    37   18   19 ar
    38   19   20 ar
    39   19   45 1
    40   20   21 ar
    41   20   46 1
    42   21   22 ar
    43   21   47 1
    44   22   28 1
    45   22   23 ar
    46   23   24 1
    47   24   25 1
    48   25   26 1
    49   25   48 1
    50   25   49 1
    51   26   27 1
    52   26   50 1
    53   26   51 1
    54   27   28 am
    55   27   52 1
    56   28   29 2
@<TRIPOS>MOLECULE
CHEMBL516910
   61    64     0     0     0
SMALL
USER_CHARGES

@<TRIPOS>ATOM
      1 C1         -0.0139    1.3831    0.0612 C.ar      1 <0>        -0.0389
      2 C2          0.8624    1.5949   -0.9868 C.ar      1 <0>        -0.1568
      3 C3          2.0713    0.9248   -1.0267 C.ar      1 <0>         0.1595
      4 C4          2.4047    0.0319   -0.0032 C.ar      1 <0>        -0.1689
      5 C5          1.5129   -0.1751    1.0510 C.ar      1 <0>        -0.0329
      6 C6          0.3111    0.5006    1.0768 C.ar      1 <0>        -0.1074
      7 C7         -0.6515    0.2777    2.2148 C.3       1 <0>         0.0934
      8 O1         -1.5353   -0.7965    1.8876 O.3       1 <0>        -0.2690
      9 C8         -2.4710   -1.1279    2.8128 C.ar      1 <0>         0.1800
     10 C9         -2.5435   -0.4314    4.0099 C.ar      1 <0>        -0.1912
     11 C10        -3.4952   -0.7690    4.9512 C.ar      1 <0>        -0.0811
     12 C11        -4.3850   -1.8053    4.7083 C.ar      1 <0>         0.0553
     13 C12        -4.3264   -2.5083    3.5224 C.ar      1 <0>        -0.0821
     14 C13        -3.3713   -2.1712    2.5599 C.ar      1 <0>        -0.1484
     15 C14        -3.3070   -2.9141    1.2869 C.2       1 <0>         0.5650
     16 O2         -2.4710   -2.6216    0.4538 O.2       1 <0>        -0.5128
     17 N1         -4.1748   -3.9171    1.0474 N.am      1 <0>        -0.8532
     18 F1         -5.3122   -2.1277    5.6366 F         1 <0>        -0.1348
     19 C15         3.6934   -0.6887   -0.0375 C.2       1 <0>         0.5680
     20 O3          4.7333   -0.0694   -0.1507 O.2       1 <0>        -0.5181
     21 N2          3.7165   -2.0330    0.0568 N.am      1 <0>        -0.6064
     22 C16         2.4654   -2.8042    0.0605 C.3       1 <0>         0.0908
     23 C17         2.5291   -3.8468   -1.0625 C.3       1 <0>         0.0981
     24 N3          3.8059   -4.5678   -0.9620 N.am      1 <0>        -0.6137
     25 C18         5.0569   -3.7966   -0.9657 C.3       1 <0>         0.0886
     26 C19         4.9934   -2.7543    0.1516 C.3       1 <0>         0.0962
     27 C20         3.8290   -5.9120   -0.8678 C.2       1 <0>         0.5230
     28 O4          2.7900   -6.5377   -0.8653 O.2       1 <0>        -0.5329
     29 C21         5.1458   -6.6377   -0.7654 C.3       1 <0>        -0.1134
     30 C22         5.9790   -6.4032   -2.0423 C.3       1 <0>        -0.1174
     31 C23         6.6878   -7.7585   -2.2876 C.3       1 <0>        -0.1245
     32 C24         5.6013   -8.7890   -1.8916 C.3       1 <0>        -0.1249
     33 C25         4.9056   -8.1546   -0.6696 C.3       1 <0>        -0.1193
     34 F2          2.9273    1.1316   -2.0513 F         1 <0>        -0.1212
     35 H1         -0.9549    1.9123    0.0900 H         1 <0>         0.1424
     36 H2          0.6021    2.2847   -1.7760 H         1 <0>         0.1489
     37 H3          1.7637   -0.8634    1.8445 H         1 <0>         0.1396
     38 H4         -0.0947    0.0279    3.1179 H         1 <0>         0.0789
     39 H5         -1.2303    1.1857    2.3842 H         1 <0>         0.0813
     40 H6         -1.8539    0.3763    4.2062 H         1 <0>         0.1475
     41 H7         -3.5471   -0.2237    5.8819 H         1 <0>         0.1461
     42 H8         -5.0204   -3.3147    3.3367 H         1 <0>         0.1466
     43 H9         -4.8417   -4.1505    1.7119 H         1 <0>         0.3991
     44 H10        -4.1325   -4.4056    0.2104 H         1 <0>         0.4080
     45 H11         2.3485   -3.3071    1.0204 H         1 <0>         0.0789
     46 H12         1.6224   -2.1345   -0.1095 H         1 <0>         0.1034
     47 H13         1.7028   -4.5497   -0.9564 H         1 <0>         0.1089
     48 H14         2.4661   -3.3475   -2.0293 H         1 <0>         0.0735
     49 H15         5.9000   -4.4663   -0.7957 H         1 <0>         0.1059
     50 H16         5.1738   -3.2937   -1.9256 H         1 <0>         0.0780
     51 H17         5.8195   -2.0517    0.0418 H         1 <0>         0.1090
     52 H18         5.0606   -3.2536    1.1182 H         1 <0>         0.0770
     53 H19         5.6959   -6.2908    0.1093 H         1 <0>         0.0987
     54 H20         5.3293   -6.1552   -2.8816 H         1 <0>         0.0706
     55 H21         6.7121   -5.6132   -1.8798 H         1 <0>         0.0757
     56 H22         6.9596   -7.8678   -3.3375 H         1 <0>         0.0701
     57 H23         7.5649   -7.8569   -1.6481 H         1 <0>         0.0710
     58 H24         4.8906   -8.9262   -2.7065 H         1 <0>         0.0664
     59 H25         6.0589   -9.7400   -1.6190 H         1 <0>         0.0684
     60 H26         5.3400   -8.5439    0.2512 H         1 <0>         0.0684
     61 H27         3.8367   -8.3658   -0.6971 H         1 <0>         0.0894
@<TRIPOS>BOND
     1    1    6 ar
     2    1    2 ar
     3    1   35 1
     4    2    3 ar
     5    2   36 1
     6    3    4 ar
     7    3   34 1
     8    4    5 ar
     9    4   19 1
    10    5    6 ar
    11    5   37 1
    12    6    7 1
    13    7    8 1
    14    7   38 1
    15    7   39 1
    16    8    9 1
    17    9   14 ar
    18    9   10 ar
    19   10   11 ar
    20   10   40 1
    21   11   12 ar
    22   11   41 1
    23   12   13 ar
    24   12   18 1
    25   13   14 ar
    26   13   42 1
    27   14   15 1
    28   15   16 2
    29   15   17 am
    30   17   43 1
    31   17   44 1
    32   19   20 2
    33   19   21 am
    34   21   26 1
    35   21   22 1
    36   22   23 1
    37   22   45 1
    38   22   46 1
    39   23   24 1
    40   23   47 1
    41   23   48 1
    42   24   25 1
    43   24   27 am
    44   25   26 1
    45   25   49 1
    46   25   50 1
    47   26   51 1
    48   26   52 1
    49   27   28 2
    50   27   29 1
    51   29   33 1
    52   29   30 1
    53   29   53 1
    54   30   31 1
    55   30   54 1
    56   30   55 1
    57   31   32 1
    58   31   56 1
    59   31   57 1
    60   32   33 1
    61   32   58 1
    62   32   59 1
    63   33   60 1
    64   33   61 1
@<TRIPOS>MOLECULE
CHEMBL508796
   28    30     0     0     0
SMALL
USER_CHARGES

@<TRIPOS>ATOM
      1 C1         -0.0184    1.5028    0.0103 C.3       1 <0>        -0.0810
      2 C2          0.0021   -0.0041    0.0020 C.2       1 <0>         0.1383
      3 C3          0.0081   -0.8281   -1.1477 C.2       1 <0>        -0.2509
      4 C4         -0.0022   -0.5537   -2.5366 C.2       1 <0>         0.0601
      5 C5          0.0087   -1.5894   -3.4149 C.2       1 <0>        -0.2487
      6 C6          0.0296   -2.9146   -2.9333 C.2       1 <0>         0.5650
      7 O1          0.0398   -3.8412   -3.7267 O.2       1 <0>        -0.5350
      8 N1          0.0390   -3.1736   -1.6136 N.am      1 <0>        -0.6077
      9 H1          0.0536   -4.0928   -1.3040 H         1 <0>         0.4129
     10 C7          0.0283   -2.1513   -0.7037 C.2       1 <0>         0.3459
     11 N2          0.0337   -2.1141    0.6463 N.pl3     1 <0>        -0.3781
     12 N3          0.0230   -0.7746    1.0528 N.2       1 <0>        -0.2712
     13 C8          0.0534   -3.2786    1.5350 C.3       1 <0>         0.0947
     14 C9         -0.0055   -1.0657   -4.8353 C.3       1 <0>        -0.0515
     15 C10        -0.4632    0.4041   -4.7176 C.3       1 <0>        -0.1206
     16 C11        -0.0249    0.7631   -3.2812 C.3       1 <0>        -0.0907
     17 H2          1.0042    1.8801    0.0026 H         1 <0>         0.0873
     18 H3         -0.5455    1.8639   -0.8728 H         1 <0>         0.0850
     19 H4         -0.5286    1.8543    0.9071 H         1 <0>         0.0822
     20 H5          1.0858   -3.5535    1.7509 H         1 <0>         0.0821
     21 H6         -0.4597   -3.0345    2.4652 H         1 <0>         0.1022
     22 H7         -0.4512   -4.1143    1.0501 H         1 <0>         0.0859
     23 H8          0.9937   -1.1175   -5.2678 H         1 <0>         0.0778
     24 H9         -0.7109   -1.6343   -5.4413 H         1 <0>         0.0763
     25 H10         0.0479    1.0307   -5.4485 H         1 <0>         0.0831
     26 H11        -1.5447    0.4849   -4.8262 H         1 <0>         0.0761
     27 H12        -0.7437    1.4437   -2.8250 H         1 <0>         0.0860
     28 H13         0.9690    1.2106   -3.2893 H         1 <0>         0.0944
@<TRIPOS>BOND
     1    1    2 1
     2    1   17 1
     3    1   18 1
     4    1   19 1
     5    2   12 2
     6    2    3 1
     7    3   10 2
     8    3    4 1
     9    4   16 1
    10    4    5 2
    11    5    6 1
    12    5   14 1
    13    6    7 2
    14    6    8 am
    15    8    9 1
    16    8   10 1
    17   10   11 1
    18   11   12 1
    19   11   13 1
    20   13   20 1
    21   13   21 1
    22   13   22 1
    23   14   15 1
    24   14   23 1
    25   14   24 1
    26   15   16 1
    27   15   25 1
    28   15   26 1
    29   16   27 1
    30   16   28 1
@<TRIPOS>MOLECULE
CHEMBL496937
   35    38     0     0     0
SMALL
USER_CHARGES

@<TRIPOS>ATOM
      1 C1         -0.0178    1.4608    0.0101 C.3       1 <0>         0.0940
      2 N1          0.0021   -0.0041    0.0020 N.pl3     1 <0>        -0.3805
      3 C2          0.0075   -0.7800   -1.1097 C.2       1 <0>         0.3481
      4 C3          0.0277   -2.1087   -0.6861 C.2       1 <0>        -0.2403
      5 C4          0.0376   -3.1525   -1.6374 C.2       1 <0>         0.0590
      6 C5          0.0280   -2.8401   -2.9603 C.2       1 <0>        -0.2454
      7 C6          0.0083   -1.4878   -3.3580 C.2       1 <0>         0.5640
      8 O1         -0.0003   -1.2122   -4.5463 O.2       1 <0>        -0.5341
      9 N2         -0.0021   -0.4965   -2.4493 N.am      1 <0>        -0.6054
     10 H1         -0.0164    0.4271   -2.7453 H         1 <0>         0.4137
     11 C7          0.0416   -4.1046   -3.7923 C.3       1 <0>        -0.0512
     12 C8          0.4970   -5.2181   -2.8247 C.3       1 <0>        -0.1209
     13 C9          0.0582   -4.6544   -1.4559 C.3       1 <0>        -0.0937
     14 C10         0.0344   -2.0787    0.7790 C.2       1 <0>         0.1782
     15 N3          0.0244   -0.8167    1.1397 N.2       1 <0>        -0.2522
     16 C11         0.0551   -3.2529    1.6836 C.ar      1 <0>        -0.0261
     17 C12        -0.6174   -4.4213    1.3290 C.ar      1 <0>        -0.0960
     18 C13        -0.5943   -5.5114    2.1749 C.ar      1 <0>        -0.1205
     19 C14         0.0944   -5.4462    3.3728 C.ar      1 <0>        -0.1037
     20 C15         0.7632   -4.2892    3.7303 C.ar      1 <0>        -0.1210
     21 C16         0.7519   -3.1948    2.8897 C.ar      1 <0>        -0.0847
     22 H2          1.0048    1.8381    0.0023 H         1 <0>         0.0825
     23 H3         -0.5450    1.8219   -0.8730 H         1 <0>         0.0867
     24 H4         -0.5280    1.8123    0.9069 H         1 <0>         0.1026
     25 H5         -0.9575   -4.3185   -4.1720 H         1 <0>         0.0786
     26 H6          0.7479   -4.0076   -4.6168 H         1 <0>         0.0770
     27 H7         -0.0149   -6.1557   -3.0417 H         1 <0>         0.0838
     28 H8          1.5784   -5.3488   -2.8631 H         1 <0>         0.0765
     29 H9          0.7759   -4.9327   -0.6842 H         1 <0>         0.0890
     30 H10        -0.9364   -5.0182   -1.1979 H         1 <0>         0.0953
     31 H11        -1.1558   -4.4733    0.3941 H         1 <0>         0.1340
     32 H12        -1.1153   -6.4171    1.9013 H         1 <0>         0.1298
     33 H13         0.1097   -6.3018    4.0317 H         1 <0>         0.1266
     34 H14         1.2986   -4.2438    4.6671 H         1 <0>         0.1283
     35 H15         1.2780   -2.2936    3.1677 H         1 <0>         0.1278
@<TRIPOS>BOND
     1    1    2 1
     2    1   22 1
     3    1   23 1
     4    1   24 1
     5    2   15 1
     6    2    3 1
     7    3    9 1
     8    3    4 2
     9    4    5 1
    10    4   14 1
    11    5   13 1
    12    5    6 2
    13    6    7 1
    14    6   11 1
    15    7    8 2
    16    7    9 am
    17    9   10 1
    18   11   12 1
    19   11   25 1
    20   11   26 1
    21   12   13 1
    22   12   27 1
    23   12   28 1
    24   13   29 1
    25   13   30 1
    26   14   15 2
    27   14   16 1
    28   16   21 ar
    29   16   17 ar
    30   17   18 ar
    31   17   31 1
    32   18   19 ar
    33   18   32 1
    34   19   20 ar
    35   19   33 1
    36   20   21 ar
    37   20   34 1
    38   21   35 1
@<TRIPOS>MOLECULE
CHEMBL506109
   32    35     0     0     0
SMALL
USER_CHARGES

@<TRIPOS>ATOM
      1 C1         -0.0178    1.4608    0.0101 C.3       1 <0>         0.0935
      2 N1          0.0021   -0.0041    0.0020 N.pl3     1 <0>        -0.3772
      3 C2          0.0075   -0.7794   -1.1099 C.2       1 <0>         0.3506
      4 C3          0.0280   -2.1086   -0.6878 C.2       1 <0>        -0.2378
      5 C4          0.0375   -3.1509   -1.6394 C.2       1 <0>         0.0579
      6 C5          0.0273   -2.8373   -2.9625 C.2       1 <0>        -0.2425
      7 C6          0.0066   -1.4851   -3.3589 C.2       1 <0>         0.5642
      8 O1         -0.0022   -1.2085   -4.5471 O.2       1 <0>        -0.5325
      9 N2         -0.0028   -0.4946   -2.4494 N.am      1 <0>        -0.6048
     10 H1         -0.0177    0.4293   -2.7445 H         1 <0>         0.4145
     11 C7          0.0406   -4.1013   -3.7954 C.3       1 <0>        -0.0512
     12 C8          0.4967   -5.2154   -2.8288 C.3       1 <0>        -0.1185
     13 C9          0.0584   -4.6530   -1.4593 C.3       1 <0>        -0.0939
     14 C10         0.0350   -2.0800    0.7787 C.2       1 <0>         0.2154
     15 N3          0.0244   -0.8162    1.1400 N.2       1 <0>        -0.2417
     16 C11         0.0552   -3.2501    1.6792 C.2       1 <0>        -0.1052
     17 C12         0.6690   -3.3927    2.8958 C.2       1 <0>        -0.1105
     18 C13         0.5475   -4.5924    3.5617 C.2       1 <0>        -0.1624
     19 C14        -0.1736   -5.5937    2.9951 C.2       1 <0>        -0.1662
     20 S1         -0.7202   -4.8446    1.4697 S.3       1 <0>         0.0986
     21 H2          1.0048    1.8381    0.0023 H         1 <0>         0.0839
     22 H3         -0.5450    1.8219   -0.8730 H         1 <0>         0.0882
     23 H4         -0.5280    1.8123    0.9069 H         1 <0>         0.1036
     24 H5         -0.9586   -4.3150   -4.1748 H         1 <0>         0.0794
     25 H6          0.7465   -4.0036   -4.6202 H         1 <0>         0.0778
     26 H7         -0.0151   -6.1529   -3.0463 H         1 <0>         0.0844
     27 H8          1.5781   -5.3459   -2.8678 H         1 <0>         0.0768
     28 H9          0.7764   -4.9319   -0.6882 H         1 <0>         0.0890
     29 H10        -0.9361   -5.0172   -1.2013 H         1 <0>         0.0954
     30 H11         1.2372   -2.5803    3.3243 H         1 <0>         0.1394
     31 H12         1.0203   -4.7350    4.5222 H         1 <0>         0.1402
     32 H13        -0.3697   -6.5865    3.3723 H         1 <0>         0.1915
@<TRIPOS>BOND
     1    1    2 1
     2    1   21 1
     3    1   22 1
     4    1   23 1
     5    2   15 1
     6    2    3 1
     7    3    9 1
     8    3    4 2
     9    4    5 1
    10    4   14 1
    11    5   13 1
    12    5    6 2
    13    6    7 1
    14    6   11 1
    15    7    8 2
    16    7    9 am
    17    9   10 1
    18   11   12 1
    19   11   24 1
    20   11   25 1
    21   12   13 1
    22   12   26 1
    23   12   27 1
    24   13   28 1
    25   13   29 1
    26   14   15 2
    27   14   16 1
    28   16   20 1
    29   16   17 2
    30   17   18 1
    31   17   30 1
    32   18   19 2
    33   18   31 1
    34   19   20 1
    35   19   32 1
@<TRIPOS>MOLECULE
CHEMBL498007
   38    40     0     0     0
SMALL
USER_CHARGES

@<TRIPOS>ATOM
      1 C1         -0.0187    1.5258    0.0104 C.3       1 <0>        -0.1544
      2 C2          0.0021   -0.0041    0.0020 C.3       1 <0>         0.0062
      3 C3         -1.4318   -0.5600    0.1228 C.3       1 <0>        -0.1470
      4 C4         -1.4345   -1.3822    1.4294 C.3       1 <0>        -0.0008
      5 N1         -0.3287   -0.8057    2.2368 N.4       1 <0>        -0.3975
      6 C5          0.7451   -0.5371    1.2459 C.3       1 <0>         0.0115
      7 C6          0.1308   -1.7722    3.2430 C.3       1 <0>        -0.0412
      8 C7          0.6580   -0.5108   -1.2566 C.2       1 <0>         0.2697
      9 N2          0.0913   -0.4945   -2.4913 N.pl3     1 <0>        -0.5876
     10 H1         -0.7912   -0.1603   -2.7156 H         1 <0>         0.4267
     11 C8          1.0082   -1.0426   -3.3675 C.ar      1 <0>         0.0470
     12 C9          1.0083   -1.2899   -4.7327 C.ar      1 <0>        -0.0809
     13 C10         2.1100   -1.8666   -5.3336 C.ar      1 <0>        -0.0987
     14 C11         3.2242   -2.2041   -4.5874 C.ar      1 <0>        -0.0799
     15 C12         3.2507   -1.9663   -3.2156 C.ar      1 <0>        -0.0864
     16 C13         2.1302   -1.3780   -2.5919 C.ar      1 <0>         0.0990
     17 N3          1.8538   -1.0239   -1.3213 N.2       1 <0>        -0.4545
     18 C14         4.4395   -2.3262   -2.4218 C.2       1 <0>         0.5608
     19 O1          4.4572   -2.1163   -1.2241 O.2       1 <0>        -0.5210
     20 N4          5.5067   -2.8879   -3.0233 N.am      1 <0>        -0.8506
     21 H2          1.0039    1.9031    0.0027 H         1 <0>         0.0841
     22 H3         -0.5459    1.8868   -0.8726 H         1 <0>         0.0797
     23 H4         -0.5289    1.8773    0.9072 H         1 <0>         0.0785
     24 H5         -2.1504    0.2570    0.1880 H         1 <0>         0.1150
     25 H6         -1.6623   -1.2009   -0.7283 H         1 <0>         0.1109
     26 H7         -2.3854   -1.2663    1.9495 H         1 <0>         0.1406
     27 H8         -1.2420   -2.4339    1.2172 H         1 <0>         0.1352
     28 H9          1.2787   -1.4565    1.0050 H         1 <0>         0.1529
     29 H10         1.4353    0.2151    1.6278 H         1 <0>         0.1462
     30 H11         0.4650   -2.6830    2.7460 H         1 <0>         0.1230
     31 H12         0.9577   -1.3426    3.8085 H         1 <0>         0.1262
     32 H13        -0.6892   -2.0083    3.9211 H         1 <0>         0.1250
     33 H14         0.1444   -1.0312   -5.3270 H         1 <0>         0.1349
     34 H15         2.1011   -2.0563   -6.3968 H         1 <0>         0.1464
     35 H16         4.0782   -2.6548   -5.0710 H         1 <0>         0.1409
     36 H17         5.4926   -3.0553   -3.9787 H         1 <0>         0.4014
     37 H18         6.2890   -3.1247   -2.5009 H         1 <0>         0.4090
     38 H19        -0.6242    0.0522    2.6782 H         1 <0>         0.4293
@<TRIPOS>BOND
     1    1    2 1
     2    1   21 1
     3    1   22 1
     4    1   23 1
     5    2    6 1
     6    2    3 1
     7    2    8 1
     8    3    4 1
     9    3   24 1
    10    3   25 1
    11    4    5 1
    12    4   26 1
    13    4   27 1
    14    5    6 1
    15    5    7 1
    16    5   38 1
    17    6   28 1
    18    6   29 1
    19    7   30 1
    20    7   31 1
    21    7   32 1
    22    8   17 2
    23    8    9 1
    24    9   10 1
    25    9   11 1
    26   11   16 ar
    27   11   12 ar
    28   12   13 ar
    29   12   33 1
    30   13   14 ar
    31   13   34 1
    32   14   15 ar
    33   14   35 1
    34   15   16 ar
    35   15   18 1
    36   16   17 1
    37   18   19 2
    38   18   20 am
    39   20   36 1
    40   20   37 1
@<TRIPOS>MOLECULE
CHEMBL498007__1
   38    40     0     0     0
SMALL
USER_CHARGES

@<TRIPOS>ATOM
      1 C1         -0.0187    1.5258    0.0104 C.3       1 <0>        -0.1542
      2 C2          0.0021   -0.0041    0.0020 C.3       1 <0>         0.0080
      3 C3          0.8145   -0.5230   -1.2065 C.3       1 <0>        -0.1404
      4 C4          2.2101   -0.7994   -0.5929 C.3       1 <0>        -0.0021
      5 N1          1.8889   -1.3337    0.7552 N.4       1 <0>        -0.3938
      6 C5          0.7433   -0.5354    1.2429 C.3       1 <0>        -0.0003
      7 C6          3.0399   -1.1688    1.6529 C.3       1 <0>        -0.0428
      8 C7         -1.4038   -0.5452   -0.0390 C.2       1 <0>         0.2679
      9 N2         -2.3943   -0.0803   -0.8445 N.pl3     1 <0>        -0.5836
     10 H1         -2.3236    0.6455   -1.4841 H         1 <0>         0.4279
     11 C8         -3.5209   -0.8357   -0.5820 C.ar      1 <0>         0.0463
     12 C9         -4.8172   -0.8374   -1.0767 C.ar      1 <0>        -0.0794
     13 C10        -5.7418   -1.7446   -0.5975 C.ar      1 <0>        -0.0994
     14 C11        -5.3912   -2.6605    0.3773 C.ar      1 <0>        -0.0786
     15 C12        -4.0970   -2.6808    0.8908 C.ar      1 <0>        -0.0887
     16 C13        -3.1449   -1.7580    0.4084 C.ar      1 <0>         0.1009
     17 N3         -1.8465   -1.5311    0.6887 N.2       1 <0>        -0.4639
     18 C14        -3.7248   -3.6581    1.9296 C.2       1 <0>         0.5629
     19 O1         -2.5931   -3.6714    2.3744 O.2       1 <0>        -0.5251
     20 N4         -4.6388   -4.5371    2.3863 N.am      1 <0>        -0.8502
     21 H2          1.0039    1.9031    0.0027 H         1 <0>         0.0844
     22 H3         -0.5459    1.8868   -0.8726 H         1 <0>         0.0768
     23 H4         -0.5289    1.8773    0.9072 H         1 <0>         0.0812
     24 H5          0.3774   -1.4409   -1.5996 H         1 <0>         0.1040
     25 H6          0.8788    0.2385   -1.9837 H         1 <0>         0.1245
     26 H7          2.7494   -1.5410   -1.1822 H         1 <0>         0.1405
     27 H8          2.7852    0.1232   -0.5141 H         1 <0>         0.1383
     28 H9          1.1018    0.2984    1.8465 H         1 <0>         0.1403
     29 H10         0.0765   -1.1645    1.8326 H         1 <0>         0.1589
     30 H11         3.3016   -0.1127    1.7179 H         1 <0>         0.1218
     31 H12         2.7834   -1.5412    2.6447 H         1 <0>         0.1254
     32 H13         3.8887   -1.7301    1.2623 H         1 <0>         0.1248
     33 H14        -5.1040   -0.1273   -1.8382 H         1 <0>         0.1353
     34 H15        -6.7488   -1.7383   -0.9878 H         1 <0>         0.1466
     35 H16        -6.1250   -3.3636    0.7426 H         1 <0>         0.1409
     36 H17        -5.5415   -4.5265    2.0315 H         1 <0>         0.4019
     37 H18        -4.3938   -5.1802    3.0699 H         1 <0>         0.4090
     38 H19         1.6323   -2.3075    0.6915 H         1 <0>         0.4342
@<TRIPOS>BOND
     1    1    2 1
     2    1   21 1
     3    1   22 1
     4    1   23 1
     5    2    6 1
     6    2    3 1
     7    2    8 1
     8    3    4 1
     9    3   24 1
    10    3   25 1
    11    4    5 1
    12    4   26 1
    13    4   27 1
    14    5    6 1
    15    5    7 1
    16    5   38 1
    17    6   28 1
    18    6   29 1
    19    7   30 1
    20    7   31 1
    21    7   32 1
    22    8   17 2
    23    8    9 1
    24    9   10 1
    25    9   11 1
    26   11   16 ar
    27   11   12 ar
    28   12   13 ar
    29   12   33 1
    30   13   14 ar
    31   13   34 1
    32   14   15 ar
    33   14   35 1
    34   15   16 ar
    35   15   18 1
    36   16   17 1
    37   18   19 2
    38   18   20 am
    39   20   36 1
    40   20   37 1
@<TRIPOS>MOLECULE
CHEMBL108339
   63    66     0     0     0
SMALL
USER_CHARGES

@<TRIPOS>ATOM
      1 C1          1.1695   -0.8282    0.0013 C.3       1 <0>         0.0289
      2 O1          0.0021   -0.0041   -0.0007 O.3       1 <0>        -0.3213
      3 C2         -1.2012   -0.6379    0.0083 C.ar      1 <0>         0.0727
      4 C3         -1.2544   -2.0238    0.0245 C.ar      1 <0>        -0.1574
      5 C4         -2.4759   -2.6683    0.0336 C.ar      1 <0>        -0.1582
      6 C5         -3.6509   -1.9284    0.0266 C.ar      1 <0>         0.1833
      7 C6         -3.5967   -0.5410    0.0103 C.ar      1 <0>        -0.1572
      8 C7         -2.3744    0.1019    0.0069 C.ar      1 <0>        -0.1009
      9 N1         -4.8890   -2.5806    0.0353 N.pl3     1 <0>        -0.6327
     10 C8         -6.1375   -1.8139    0.1500 C.3       1 <0>         0.1099
     11 C9         -7.0441   -2.1739   -1.0335 C.3       1 <0>         0.0952
     12 N2         -7.1191   -3.6378   -1.1393 N.am      1 <0>        -0.6058
     13 C10        -5.8706   -4.4046   -1.2539 C.3       1 <0>         0.0860
     14 C11        -4.9642   -4.0441   -0.0760 C.3       1 <0>         0.1087
     15 C12        -8.3116   -4.2660   -1.1308 C.2       1 <0>         0.5124
     16 O2         -9.3352   -3.6226   -1.0353 O.2       1 <0>        -0.5339
     17 C13        -8.3729   -5.7678   -1.2400 C.3       1 <0>         0.1004
     18 N3         -9.7714   -6.2030   -1.2076 N.am      1 <0>        -0.7176
     19 C14       -10.0711   -7.5144   -1.2916 C.2       1 <0>         0.5265
     20 O3         -9.1831   -8.3341   -1.3939 O.2       1 <0>        -0.5343
     21 C15       -11.5096   -7.9621   -1.2583 C.3       1 <0>        -0.1622
     22 C16       -11.5719   -9.4868   -1.3692 C.3       1 <0>         0.1169
     23 N4        -12.9704   -9.9221   -1.3368 N.am      1 <0>        -0.5391
     24 C17       -13.5554  -10.2059   -0.1126 C.2       1 <0>         0.2143
     25 C18       -14.8375  -10.5789   -0.0945 C.2       1 <0>        -0.2477
     26 C19       -15.5333  -10.7188   -1.3345 C.2       1 <0>         0.5551
     27 O4        -16.6920  -11.0935   -1.3367 O.2       1 <0>        -0.5049
     28 N5        -14.9226  -10.4409   -2.4968 N.am      1 <0>        -0.6560
     29 H1        -15.4012  -10.5341   -3.3353 H         1 <0>         0.4350
     30 C20       -13.6413  -10.0271   -2.4888 C.2       1 <0>         0.6982
     31 O5        -13.0893   -9.7511   -3.5364 O.2       1 <0>        -0.5313
     32 C21       -15.6669  -10.8524    1.1353 C.3       1 <0>        -0.0102
     33 S1        -14.5904  -11.1750    2.5597 S.3       1 <0>        -0.2344
     34 C22       -13.3475   -9.8546    2.3858 C.3       1 <0>        -0.0833
     35 C23       -12.6291  -10.0727    1.0618 C.3       1 <0>        -0.1027
     36 H2          2.0590   -0.1982   -0.0066 H         1 <0>         0.0986
     37 H3          1.1731   -1.4509    0.8959 H         1 <0>         0.0531
     38 H4          1.1668   -1.4641   -0.8840 H         1 <0>         0.0530
     39 H5         -0.3404   -2.5991    0.0296 H         1 <0>         0.1278
     40 H6         -2.5171   -3.7475    0.0459 H         1 <0>         0.1256
     41 H7         -4.5101    0.0353    0.0048 H         1 <0>         0.1301
     42 H8         -2.3320    1.1811   -0.0009 H         1 <0>         0.1310
     43 H9         -6.6380   -2.0673    1.0845 H         1 <0>         0.0677
     44 H10        -5.9149   -0.7471    0.1290 H         1 <0>         0.0976
     45 H11        -8.0418   -1.7676   -0.8670 H         1 <0>         0.1049
     46 H12        -6.6272   -1.7617   -1.9524 H         1 <0>         0.0764
     47 H13        -6.0932   -5.4714   -1.2329 H         1 <0>         0.0983
     48 H14        -5.3702   -4.1511   -2.1885 H         1 <0>         0.0815
     49 H15        -3.9670   -4.4498   -0.2463 H         1 <0>         0.0978
     50 H16        -5.3792   -4.4600    0.8421 H         1 <0>         0.0679
     51 H17        -7.9159   -6.0828   -2.1781 H         1 <0>         0.1025
     52 H18        -7.8337   -6.2151   -0.4050 H         1 <0>         0.1026
     53 H19       -10.4816   -5.5475   -1.1258 H         1 <0>         0.4143
     54 H20       -11.9666   -7.6471   -0.3202 H         1 <0>         0.1032
     55 H21       -12.0488   -7.5148   -2.0933 H         1 <0>         0.1094
     56 H22       -11.1150   -9.8019   -2.3073 H         1 <0>         0.1175
     57 H23       -11.0327   -9.9342   -0.5341 H         1 <0>         0.1115
     58 H24       -16.2955   -9.9873    1.3465 H         1 <0>         0.1029
     59 H25       -16.3005  -11.7213    0.9575 H         1 <0>         0.1278
     60 H26       -13.8389   -8.8817    2.3844 H         1 <0>         0.0958
     61 H27       -12.6333   -9.9081    3.2075 H         1 <0>         0.1259
     62 H28       -12.0286  -10.9793    1.1364 H         1 <0>         0.1175
     63 H29       -11.9613   -9.2296    0.8848 H         1 <0>         0.1052
@<TRIPOS>BOND
     1    1    2 1
     2    1   36 1
     3    1   37 1
     4    1   38 1
     5    2    3 1
     6    3    8 ar
     7    3    4 ar
     8    4    5 ar
     9    4   39 1
    10    5    6 ar
    11    5   40 1
    12    6    7 ar
    13    6    9 1
    14    7    8 ar
    15    7   41 1
    16    8   42 1
    17    9   14 1
    18    9   10 1
    19   10   11 1
    20   10   43 1
    21   10   44 1
    22   11   12 1
    23   11   45 1
    24   11   46 1
    25   12   13 1
    26   12   15 am
    27   13   14 1
    28   13   47 1
    29   13   48 1
    30   14   49 1
    31   14   50 1
    32   15   16 2
    33   15   17 1
    34   17   18 1
    35   17   51 1
    36   17   52 1
    37   18   19 am
    38   18   53 1
    39   19   20 2
    40   19   21 1
    41   21   22 1
    42   21   54 1
    43   21   55 1
    44   22   23 1
    45   22   56 1
    46   22   57 1
    47   23   30 am
    48   23   24 1
    49   24   35 1
    50   24   25 2
    51   25   26 1
    52   25   32 1
    53   26   27 2
    54   26   28 am
    55   28   29 1
    56   28   30 am
    57   30   31 2
    58   32   33 1
    59   32   58 1
    60   32   59 1
    61   33   34 1
    62   34   35 1
    63   34   60 1
    64   34   61 1
    65   35   62 1
    66   35   63 1
@<TRIPOS>MOLECULE
CHEMBL496976
   51    54     0     0     0
SMALL
USER_CHARGES

@<TRIPOS>ATOM
      1 C1         -0.0187    1.5258    0.0104 C.3       1 <0>        -0.1543
      2 C2          0.0021   -0.0041    0.0020 C.3       1 <0>         0.0070
      3 C3         -1.4318   -0.5600    0.1228 C.3       1 <0>        -0.1457
      4 C4         -1.4345   -1.3822    1.4294 C.3       1 <0>        -0.0028
      5 N1         -0.3287   -0.8057    2.2368 N.4       1 <0>        -0.3964
      6 C5          0.7451   -0.5371    1.2459 C.3       1 <0>         0.0131
      7 C6          0.1308   -1.7722    3.2430 C.3       1 <0>        -0.0005
      8 C7         -0.9805   -2.0090    4.2676 C.3       1 <0>        -0.0971
      9 C8         -0.5091   -3.0006    5.2999 C.ar      1 <0>        -0.1084
     10 C9         -0.7128   -4.3535    5.1024 C.ar      1 <0>        -0.1100
     11 C10        -0.2804   -5.2631    6.0493 C.ar      1 <0>        -0.1142
     12 C11         0.3561   -4.8197    7.1935 C.ar      1 <0>        -0.1043
     13 C12         0.5607   -3.4669    7.3906 C.ar      1 <0>        -0.1138
     14 C13         0.1321   -2.5576    6.4417 C.ar      1 <0>        -0.1095
     15 C14         0.6580   -0.5108   -1.2566 C.2       1 <0>         0.2704
     16 N2          0.0913   -0.4945   -2.4913 N.pl3     1 <0>        -0.5875
     17 H1         -0.7912   -0.1603   -2.7156 H         1 <0>         0.4266
     18 C15         1.0082   -1.0426   -3.3675 C.ar      1 <0>         0.0471
     19 C16         1.0083   -1.2899   -4.7327 C.ar      1 <0>        -0.0809
     20 C17         2.1100   -1.8666   -5.3336 C.ar      1 <0>        -0.0990
     21 C18         3.2242   -2.2041   -4.5874 C.ar      1 <0>        -0.0801
     22 C19         3.2507   -1.9663   -3.2156 C.ar      1 <0>        -0.0862
     23 C20         2.1302   -1.3780   -2.5919 C.ar      1 <0>         0.0992
     24 N3          1.8538   -1.0239   -1.3213 N.2       1 <0>        -0.4540
     25 C21         4.4395   -2.3262   -2.4218 C.2       1 <0>         0.5605
     26 O1          4.4572   -2.1163   -1.2241 O.2       1 <0>        -0.5204
     27 N4          5.5067   -2.8879   -3.0233 N.am      1 <0>        -0.8508
     28 H2          1.0039    1.9031    0.0027 H         1 <0>         0.0842
     29 H3         -0.5459    1.8868   -0.8726 H         1 <0>         0.0798
     30 H4         -0.5289    1.8773    0.9072 H         1 <0>         0.0785
     31 H5         -2.1504    0.2570    0.1880 H         1 <0>         0.1153
     32 H6         -1.6623   -1.2009   -0.7283 H         1 <0>         0.1110
     33 H7         -2.3854   -1.2663    1.9495 H         1 <0>         0.1405
     34 H8         -1.2420   -2.4339    1.2172 H         1 <0>         0.1353
     35 H9          1.2787   -1.4565    1.0050 H         1 <0>         0.1529
     36 H10         1.4353    0.2151    1.6278 H         1 <0>         0.1464
     37 H11         0.3812   -2.7139    2.7545 H         1 <0>         0.1320
     38 H12         1.0131   -1.3791    3.7482 H         1 <0>         0.1345
     39 H13        -1.2309   -1.0673    4.7561 H         1 <0>         0.0945
     40 H14        -1.8627   -2.4021    3.7625 H         1 <0>         0.0932
     41 H15        -1.2101   -4.6998    4.2084 H         1 <0>         0.1229
     42 H16        -0.4402   -6.3200    5.8953 H         1 <0>         0.1290
     43 H17         0.6933   -5.5303    7.9336 H         1 <0>         0.1294
     44 H18         1.0576   -3.1205    8.2847 H         1 <0>         0.1294
     45 H19         0.2952   -1.5009    6.5939 H         1 <0>         0.1244
     46 H20         0.1444   -1.0312   -5.3270 H         1 <0>         0.1347
     47 H21         2.1011   -2.0563   -6.3968 H         1 <0>         0.1462
     48 H22         4.0782   -2.6548   -5.0710 H         1 <0>         0.1407
     49 H23         5.4926   -3.0553   -3.9787 H         1 <0>         0.4013
     50 H24         6.2890   -3.1247   -2.5009 H         1 <0>         0.4089
     51 H25        -0.6242    0.0522    2.6782 H         1 <0>         0.4271
@<TRIPOS>BOND
     1    1    2 1
     2    1   28 1
     3    1   29 1
     4    1   30 1
     5    2    6 1
     6    2    3 1
     7    2   15 1
     8    3    4 1
     9    3   31 1
    10    3   32 1
    11    4    5 1
    12    4   33 1
    13    4   34 1
    14    5    6 1
    15    5    7 1
    16    5   51 1
    17    6   35 1
    18    6   36 1
    19    7    8 1
    20    7   37 1
    21    7   38 1
    22    8    9 1
    23    8   39 1
    24    8   40 1
    25    9   14 ar
    26    9   10 ar
    27   10   11 ar
    28   10   41 1
    29   11   12 ar
    30   11   42 1
    31   12   13 ar
    32   12   43 1
    33   13   14 ar
    34   13   44 1
    35   14   45 1
    36   15   24 2
    37   15   16 1
    38   16   17 1
    39   16   18 1
    40   18   23 ar
    41   18   19 ar
    42   19   20 ar
    43   19   46 1
    44   20   21 ar
    45   20   47 1
    46   21   22 ar
    47   21   48 1
    48   22   23 ar
    49   22   25 1
    50   23   24 1
    51   25   26 2
    52   25   27 am
    53   27   49 1
    54   27   50 1
@<TRIPOS>MOLECULE
CHEMBL496976__1
   51    54     0     0     0
SMALL
USER_CHARGES

@<TRIPOS>ATOM
      1 C1         -0.0187    1.5258    0.0104 C.3       1 <0>        -0.1542
      2 C2          0.0021   -0.0041    0.0020 C.3       1 <0>         0.0088
      3 C3          0.8145   -0.5230   -1.2065 C.3       1 <0>        -0.1390
      4 C4          2.2101   -0.7994   -0.5929 C.3       1 <0>        -0.0043
      5 N1          1.8889   -1.3337    0.7552 N.4       1 <0>        -0.3925
      6 C5          0.7433   -0.5354    1.2429 C.3       1 <0>         0.0013
      7 C6          3.0399   -1.1688    1.6529 C.3       1 <0>        -0.0018
      8 C7          4.1917   -2.0544    1.1733 C.3       1 <0>        -0.0986
      9 C8          5.3725   -1.8852    2.0943 C.ar      1 <0>        -0.1073
     10 C9          6.3155   -0.9079    1.8366 C.ar      1 <0>        -0.1107
     11 C10         7.3987   -0.7528    2.6813 C.ar      1 <0>        -0.1149
     12 C11         7.5385   -1.5746    3.7840 C.ar      1 <0>        -0.1050
     13 C12         6.5950   -2.5513    4.0422 C.ar      1 <0>        -0.1136
     14 C13         5.5096   -2.7037    3.1998 C.ar      1 <0>        -0.1094
     15 C14        -1.4038   -0.5452   -0.0390 C.2       1 <0>         0.2686
     16 N2         -2.3943   -0.0803   -0.8445 N.pl3     1 <0>        -0.5835
     17 H1         -2.3236    0.6455   -1.4841 H         1 <0>         0.4278
     18 C15        -3.5209   -0.8357   -0.5820 C.ar      1 <0>         0.0463
     19 C16        -4.8172   -0.8374   -1.0767 C.ar      1 <0>        -0.0794
     20 C17        -5.7418   -1.7446   -0.5975 C.ar      1 <0>        -0.0996
     21 C18        -5.3912   -2.6605    0.3773 C.ar      1 <0>        -0.0789
     22 C19        -4.0970   -2.6808    0.8908 C.ar      1 <0>        -0.0887
     23 C20        -3.1449   -1.7580    0.4084 C.ar      1 <0>         0.1011
     24 N3         -1.8465   -1.5311    0.6887 N.2       1 <0>        -0.4634
     25 C21        -3.7248   -3.6581    1.9296 C.2       1 <0>         0.5627
     26 O1         -2.5931   -3.6714    2.3744 O.2       1 <0>        -0.5246
     27 N4         -4.6388   -4.5371    2.3863 N.am      1 <0>        -0.8504
     28 H2          1.0039    1.9031    0.0027 H         1 <0>         0.0844
     29 H3         -0.5459    1.8868   -0.8726 H         1 <0>         0.0769
     30 H4         -0.5289    1.8773    0.9072 H         1 <0>         0.0812
     31 H5          0.3774   -1.4409   -1.5996 H         1 <0>         0.1042
     32 H6          0.8788    0.2385   -1.9837 H         1 <0>         0.1246
     33 H7          2.7494   -1.5410   -1.1822 H         1 <0>         0.1404
     34 H8          2.7852    0.1232   -0.5141 H         1 <0>         0.1385
     35 H9          1.1018    0.2984    1.8465 H         1 <0>         0.1399
     36 H10         0.0765   -1.1645    1.8326 H         1 <0>         0.1595
     37 H11         3.3573   -0.1261    1.6489 H         1 <0>         0.1312
     38 H12         2.7560   -1.4583    2.6647 H         1 <0>         0.1334
     39 H13         3.8742   -3.0971    1.1773 H         1 <0>         0.0951
     40 H14         4.4756   -1.7649    0.1616 H         1 <0>         0.0937
     41 H15         6.2063   -0.2658    0.9751 H         1 <0>         0.1231
     42 H16         8.1358    0.0103    2.4796 H         1 <0>         0.1288
     43 H17         8.3851   -1.4538    4.4436 H         1 <0>         0.1292
     44 H18         6.7044   -3.1936    4.9035 H         1 <0>         0.1293
     45 H19         4.7705   -3.4643    3.4036 H         1 <0>         0.1250
     46 H20        -5.1040   -0.1273   -1.8382 H         1 <0>         0.1351
     47 H21        -6.7488   -1.7383   -0.9878 H         1 <0>         0.1464
     48 H22        -6.1250   -3.3636    0.7426 H         1 <0>         0.1406
     49 H23        -5.5415   -4.5265    2.0315 H         1 <0>         0.4018
     50 H24        -4.3938   -5.1802    3.0699 H         1 <0>         0.4088
     51 H25         1.6323   -2.3075    0.6915 H         1 <0>         0.4320
@<TRIPOS>BOND
     1    1    2 1
     2    1   28 1
     3    1   29 1
     4    1   30 1
     5    2    6 1
     6    2    3 1
     7    2   15 1
     8    3    4 1
     9    3   31 1
    10    3   32 1
    11    4    5 1
    12    4   33 1
    13    4   34 1
    14    5    6 1
    15    5    7 1
    16    5   51 1
    17    6   35 1
    18    6   36 1
    19    7    8 1
    20    7   37 1
    21    7   38 1
    22    8    9 1
    23    8   39 1
    24    8   40 1
    25    9   14 ar
    26    9   10 ar
    27   10   11 ar
    28   10   41 1
    29   11   12 ar
    30   11   42 1
    31   12   13 ar
    32   12   43 1
    33   13   14 ar
    34   13   44 1
    35   14   45 1
    36   15   24 2
    37   15   16 1
    38   16   17 1
    39   16   18 1
    40   18   23 ar
    41   18   19 ar
    42   19   20 ar
    43   19   46 1
    44   20   21 ar
    45   20   47 1
    46   21   22 ar
    47   21   48 1
    48   22   23 ar
    49   22   25 1
    50   23   24 1
    51   25   26 2
    52   25   27 am
    53   27   49 1
    54   27   50 1
@<TRIPOS>MOLECULE
CHEMBL498008
   48    51     0     0     0
SMALL
USER_CHARGES

@<TRIPOS>ATOM
      1 C1         -0.0187    1.5258    0.0104 C.3       1 <0>        -0.1538
      2 C2          0.0021   -0.0041    0.0020 C.3       1 <0>         0.0074
      3 C3         -1.4318   -0.5600    0.1228 C.3       1 <0>        -0.1443
      4 C4         -1.4345   -1.3822    1.4294 C.3       1 <0>        -0.0082
      5 N1         -0.3287   -0.8057    2.2368 N.4       1 <0>        -0.3941
      6 C5          0.7451   -0.5371    1.2459 C.3       1 <0>         0.0129
      7 C6          0.1308   -1.7722    3.2430 C.3       1 <0>         0.0518
      8 C7         -0.9638   -2.0054    4.2522 C.ar      1 <0>        -0.1915
      9 C8         -0.9282   -1.3578    5.4728 C.ar      1 <0>        -0.0621
     10 C9         -1.9321   -1.5714    6.3987 C.ar      1 <0>        -0.1209
     11 C10        -2.9728   -2.4331    6.1051 C.ar      1 <0>        -0.0564
     12 C11        -3.0107   -3.0813    4.8854 C.ar      1 <0>        -0.1460
     13 C12        -2.0083   -2.8640    3.9550 C.ar      1 <0>         0.1168
     14 F1         -2.0468   -3.4936    2.7603 F         1 <0>        -0.1327
     15 C13         0.6580   -0.5108   -1.2566 C.2       1 <0>         0.2715
     16 N2          0.0913   -0.4945   -2.4913 N.pl3     1 <0>        -0.5873
     17 H1         -0.7912   -0.1603   -2.7156 H         1 <0>         0.4267
     18 C14         1.0082   -1.0426   -3.3675 C.ar      1 <0>         0.0470
     19 C15         1.0083   -1.2899   -4.7327 C.ar      1 <0>        -0.0807
     20 C16         2.1100   -1.8666   -5.3336 C.ar      1 <0>        -0.0993
     21 C17         3.2242   -2.2041   -4.5874 C.ar      1 <0>        -0.0802
     22 C18         3.2507   -1.9663   -3.2156 C.ar      1 <0>        -0.0864
     23 C19         2.1302   -1.3780   -2.5919 C.ar      1 <0>         0.0995
     24 N3          1.8538   -1.0239   -1.3213 N.2       1 <0>        -0.4542
     25 C20         4.4395   -2.3262   -2.4218 C.2       1 <0>         0.5608
     26 O1          4.4572   -2.1163   -1.2241 O.2       1 <0>        -0.5205
     27 N4          5.5067   -2.8879   -3.0233 N.am      1 <0>        -0.8509
     28 H2          1.0039    1.9031    0.0027 H         1 <0>         0.0846
     29 H3         -0.5459    1.8868   -0.8726 H         1 <0>         0.0800
     30 H4         -0.5289    1.8773    0.9072 H         1 <0>         0.0781
     31 H5         -2.1504    0.2570    0.1880 H         1 <0>         0.1141
     32 H6         -1.6623   -1.2009   -0.7283 H         1 <0>         0.1113
     33 H7         -2.3854   -1.2663    1.9495 H         1 <0>         0.1337
     34 H8         -1.2420   -2.4339    1.2172 H         1 <0>         0.1433
     35 H9          1.2787   -1.4565    1.0050 H         1 <0>         0.1537
     36 H10         1.4353    0.2151    1.6278 H         1 <0>         0.1480
     37 H11         0.3812   -2.7139    2.7545 H         1 <0>         0.1388
     38 H12         1.0131   -1.3791    3.7482 H         1 <0>         0.1461
     39 H13        -0.1156   -0.6848    5.7033 H         1 <0>         0.1448
     40 H14        -1.9033   -1.0652    7.3522 H         1 <0>         0.1448
     41 H15        -3.7563   -2.5998    6.8296 H         1 <0>         0.1471
     42 H16        -3.8236   -3.7545    4.6565 H         1 <0>         0.1489
     43 H17         0.1444   -1.0312   -5.3270 H         1 <0>         0.1346
     44 H18         2.1011   -2.0563   -6.3968 H         1 <0>         0.1461
     45 H19         4.0782   -2.6548   -5.0710 H         1 <0>         0.1406
     46 H20         5.4926   -3.0553   -3.9787 H         1 <0>         0.4013
     47 H21         6.2890   -3.1247   -2.5009 H         1 <0>         0.4088
     48 H22        -0.6242    0.0522    2.6782 H         1 <0>         0.4263
@<TRIPOS>BOND
     1    1    2 1
     2    1   28 1
     3    1   29 1
     4    1   30 1
     5    2    6 1
     6    2    3 1
     7    2   15 1
     8    3    4 1
     9    3   31 1
    10    3   32 1
    11    4    5 1
    12    4   33 1
    13    4   34 1
    14    5    6 1
    15    5    7 1
    16    5   48 1
    17    6   35 1
    18    6   36 1
    19    7    8 1
    20    7   37 1
    21    7   38 1
    22    8   13 ar
    23    8    9 ar
    24    9   10 ar
    25    9   39 1
    26   10   11 ar
    27   10   40 1
    28   11   12 ar
    29   11   41 1
    30   12   13 ar
    31   12   42 1
    32   13   14 1
    33   15   24 2
    34   15   16 1
    35   16   17 1
    36   16   18 1
    37   18   23 ar
    38   18   19 ar
    39   19   20 ar
    40   19   43 1
    41   20   21 ar
    42   20   44 1
    43   21   22 ar
    44   21   45 1
    45   22   23 ar
    46   22   25 1
    47   23   24 1
    48   25   26 2
    49   25   27 am
    50   27   46 1
    51   27   47 1
@<TRIPOS>MOLECULE
CHEMBL498008__1
   47    50     0     0     0
SMALL
USER_CHARGES

@<TRIPOS>ATOM
      1 C1         -0.0187    1.5258    0.0104 C.3       1 <0>        -0.1334
      2 C2          0.0021   -0.0041    0.0020 C.3       1 <0>         0.0117
      3 C3         -1.4318   -0.5600    0.1228 C.3       1 <0>        -0.1197
      4 C4         -1.4345   -1.3822    1.4294 C.3       1 <0>         0.0312
      5 N1         -0.3287   -0.8057    2.2368 N.3       1 <0>        -0.5025
      6 C5          0.7451   -0.5371    1.2459 C.3       1 <0>         0.0533
      7 C6          0.1258   -1.7554    3.2611 C.3       1 <0>         0.0834
      8 C7         -0.9393   -1.9033    4.3170 C.ar      1 <0>        -0.1083
      9 C8         -0.8299   -1.2149    5.5105 C.ar      1 <0>        -0.0738
     10 C9         -1.8066   -1.3503    6.4791 C.ar      1 <0>        -0.1291
     11 C10        -2.8941   -2.1744    6.2554 C.ar      1 <0>        -0.0917
     12 C11        -3.0058   -2.8633    5.0628 C.ar      1 <0>        -0.1547
     13 C12        -2.0305   -2.7243    4.0896 C.ar      1 <0>         0.1012
     14 F1         -2.1410   -3.3937    2.9213 F         1 <0>        -0.1384
     15 C13         0.6580   -0.5108   -1.2566 C.2       1 <0>         0.3035
     16 N2          0.0913   -0.4945   -2.4913 N.pl3     1 <0>        -0.5937
     17 H1         -0.7912   -0.1603   -2.7156 H         1 <0>         0.4240
     18 C14         1.0082   -1.0426   -3.3675 C.ar      1 <0>         0.0346
     19 C15         1.0083   -1.2899   -4.7327 C.ar      1 <0>        -0.0782
     20 C16         2.1100   -1.8666   -5.3336 C.ar      1 <0>        -0.1152
     21 C17         3.2242   -2.2041   -4.5874 C.ar      1 <0>        -0.0865
     22 C18         3.2507   -1.9663   -3.2156 C.ar      1 <0>        -0.0916
     23 C19         2.1302   -1.3780   -2.5919 C.ar      1 <0>         0.1044
     24 N3          1.8538   -1.0239   -1.3213 N.2       1 <0>        -0.4624
     25 C20         4.4395   -2.3262   -2.4218 C.2       1 <0>         0.5577
     26 O1          4.4572   -2.1163   -1.2241 O.2       1 <0>        -0.5113
     27 N4          5.5067   -2.8879   -3.0233 N.am      1 <0>        -0.8557
     28 H2          1.0039    1.9031    0.0027 H         1 <0>         0.0656
     29 H3         -0.5459    1.8868   -0.8726 H         1 <0>         0.0552
     30 H4         -0.5289    1.8773    0.9072 H         1 <0>         0.0814
     31 H5         -2.1504    0.2570    0.1880 H         1 <0>         0.0866
     32 H6         -1.6623   -1.2009   -0.7283 H         1 <0>         0.0687
     33 H7         -2.3854   -1.2663    1.9495 H         1 <0>         0.0833
     34 H8         -1.2420   -2.4339    1.2172 H         1 <0>         0.0554
     35 H9          1.2787   -1.4565    1.0050 H         1 <0>         0.0695
     36 H10         1.4353    0.2151    1.6278 H         1 <0>         0.0939
     37 H11         0.3166   -2.7242    2.7993 H         1 <0>         0.0518
     38 H12         1.0426   -1.3844    3.7193 H         1 <0>         0.0933
     39 H13         0.0193   -0.5712    5.6865 H         1 <0>         0.1338
     40 H14        -1.7201   -0.8123    7.4116 H         1 <0>         0.1304
     41 H15        -3.6563   -2.2800    7.0132 H         1 <0>         0.1321
     42 H16        -3.8551   -3.5072    4.8884 H         1 <0>         0.1341
     43 H17         0.1444   -1.0312   -5.3270 H         1 <0>         0.1290
     44 H18         2.1011   -2.0563   -6.3968 H         1 <0>         0.1391
     45 H19         4.0782   -2.6548   -5.0710 H         1 <0>         0.1345
     46 H20         5.4926   -3.0553   -3.9787 H         1 <0>         0.3984
     47 H21         6.2890   -3.1247   -2.5009 H         1 <0>         0.4051
@<TRIPOS>BOND
     1    1    2 1
     2    1   28 1
     3    1   29 1
     4    1   30 1
     5    2    6 1
     6    2    3 1
     7    2   15 1
     8    3    4 1
     9    3   31 1
    10    3   32 1
    11    4    5 1
    12    4   33 1
    13    4   34 1
    14    5    6 1
    15    5    7 1
    16    6   35 1
    17    6   36 1
    18    7    8 1
    19    7   37 1
    20    7   38 1
    21    8   13 ar
    22    8    9 ar
    23    9   10 ar
    24    9   39 1
    25   10   11 ar
    26   10   40 1
    27   11   12 ar
    28   11   41 1
    29   12   13 ar
    30   12   42 1
    31   13   14 1
    32   15   24 2
    33   15   16 1
    34   16   17 1
    35   16   18 1
    36   18   23 ar
    37   18   19 ar
    38   19   20 ar
    39   19   43 1
    40   20   21 ar
    41   20   44 1
    42   21   22 ar
    43   21   45 1
    44   22   23 ar
    45   22   25 1
    46   23   24 1
    47   25   26 2
    48   25   27 am
    49   27   46 1
    50   27   47 1
@<TRIPOS>MOLECULE
CHEMBL498008__2
   48    51     0     0     0
SMALL
USER_CHARGES

@<TRIPOS>ATOM
      1 C1         -0.0187    1.5258    0.0104 C.3       1 <0>        -0.1544
      2 C2          0.0021   -0.0041    0.0020 C.3       1 <0>         0.0091
      3 C3          0.8145   -0.5230   -1.2065 C.3       1 <0>        -0.1377
      4 C4          2.2101   -0.7994   -0.5929 C.3       1 <0>        -0.0093
      5 N1          1.8889   -1.3337    0.7552 N.4       1 <0>        -0.3902
      6 C5          0.7433   -0.5354    1.2429 C.3       1 <0>         0.0012
      7 C6          3.0399   -1.1688    1.6529 C.3       1 <0>         0.0502
      8 C7          4.1744   -2.0411    1.1805 C.ar      1 <0>        -0.1917
      9 C8          4.4105   -3.2588    1.7905 C.ar      1 <0>        -0.0612
     10 C9          5.4509   -4.0590    1.3574 C.ar      1 <0>        -0.1206
     11 C10         6.2567   -3.6426    0.3138 C.ar      1 <0>        -0.0566
     12 C11         6.0223   -2.4260   -0.2978 C.ar      1 <0>        -0.1464
     13 C12         4.9769   -1.6257    0.1318 C.ar      1 <0>         0.1164
     14 F1          4.7439   -0.4380   -0.4685 F         1 <0>        -0.1333
     15 C13        -1.4038   -0.5452   -0.0390 C.2       1 <0>         0.2699
     16 N2         -2.3943   -0.0803   -0.8445 N.pl3     1 <0>        -0.5833
     17 H1         -2.3236    0.6455   -1.4841 H         1 <0>         0.4280
     18 C14        -3.5209   -0.8357   -0.5820 C.ar      1 <0>         0.0461
     19 C15        -4.8172   -0.8374   -1.0767 C.ar      1 <0>        -0.0791
     20 C16        -5.7418   -1.7446   -0.5975 C.ar      1 <0>        -0.1001
     21 C17        -5.3912   -2.6605    0.3773 C.ar      1 <0>        -0.0789
     22 C18        -4.0970   -2.6808    0.8908 C.ar      1 <0>        -0.0890
     23 C19        -3.1449   -1.7580    0.4084 C.ar      1 <0>         0.1014
     24 N3         -1.8465   -1.5311    0.6887 N.2       1 <0>        -0.4638
     25 C20        -3.7248   -3.6581    1.9296 C.2       1 <0>         0.5630
     26 O1         -2.5931   -3.6714    2.3744 O.2       1 <0>        -0.5247
     27 N4         -4.6388   -4.5371    2.3863 N.am      1 <0>        -0.8504
     28 H2          1.0039    1.9031    0.0027 H         1 <0>         0.0849
     29 H3         -0.5459    1.8868   -0.8726 H         1 <0>         0.0771
     30 H4         -0.5289    1.8773    0.9072 H         1 <0>         0.0817
     31 H5          0.3774   -1.4409   -1.5996 H         1 <0>         0.1030
     32 H6          0.8788    0.2385   -1.9837 H         1 <0>         0.1248
     33 H7          2.7494   -1.5410   -1.1822 H         1 <0>         0.1336
     34 H8          2.7852    0.1232   -0.5141 H         1 <0>         0.1462
     35 H9          1.1018    0.2984    1.8465 H         1 <0>         0.1410
     36 H10         0.0765   -1.1645    1.8326 H         1 <0>         0.1607
     37 H11         3.3573   -0.1261    1.6489 H         1 <0>         0.1380
     38 H12         2.7560   -1.4583    2.6647 H         1 <0>         0.1449
     39 H13         3.7819   -3.5849    2.6060 H         1 <0>         0.1454
     40 H14         5.6349   -5.0102    1.8348 H         1 <0>         0.1448
     41 H15         7.0698   -4.2685   -0.0233 H         1 <0>         0.1469
     42 H16         6.6520   -2.1008   -1.1127 H         1 <0>         0.1488
     43 H17        -5.1040   -0.1273   -1.8382 H         1 <0>         0.1350
     44 H18        -6.7488   -1.7383   -0.9878 H         1 <0>         0.1463
     45 H19        -6.1250   -3.3636    0.7426 H         1 <0>         0.1405
     46 H20        -5.5415   -4.5265    2.0315 H         1 <0>         0.4018
     47 H21        -4.3938   -5.1802    3.0699 H         1 <0>         0.4087
     48 H22         1.6323   -2.3075    0.6915 H         1 <0>         0.4312
@<TRIPOS>BOND
     1    1    2 1
     2    1   28 1
     3    1   29 1
     4    1   30 1
     5    2    6 1
     6    2    3 1
     7    2   15 1
     8    3    4 1
     9    3   31 1
    10    3   32 1
    11    4    5 1
    12    4   33 1
    13    4   34 1
    14    5    6 1
    15    5    7 1
    16    5   48 1
    17    6   35 1
    18    6   36 1
    19    7    8 1
    20    7   37 1
    21    7   38 1
    22    8   13 ar
    23    8    9 ar
    24    9   10 ar
    25    9   39 1
    26   10   11 ar
    27   10   40 1
    28   11   12 ar
    29   11   41 1
    30   12   13 ar
    31   12   42 1
    32   13   14 1
    33   15   24 2
    34   15   16 1
    35   16   17 1
    36   16   18 1
    37   18   23 ar
    38   18   19 ar
    39   19   20 ar
    40   19   43 1
    41   20   21 ar
    42   20   44 1
    43   21   22 ar
    44   21   45 1
    45   22   23 ar
    46   22   25 1
    47   23   24 1
    48   25   26 2
    49   25   27 am
    50   27   46 1
    51   27   47 1
@<TRIPOS>MOLECULE
CHEMBL498008__3
   47    50     0     0     0
SMALL
USER_CHARGES

@<TRIPOS>ATOM
      1 C1         -0.0187    1.5258    0.0104 C.3       1 <0>        -0.1444
      2 C2          0.0021   -0.0041    0.0020 C.3       1 <0>         0.0046
      3 C3          0.8145   -0.5230   -1.2065 C.3       1 <0>        -0.1130
      4 C4          2.2101   -0.7994   -0.5929 C.3       1 <0>         0.0346
      5 N1          1.8889   -1.3337    0.7552 N.3       1 <0>        -0.5025
      6 C5          0.7433   -0.5354    1.2429 C.3       1 <0>         0.0499
      7 C6          3.0402   -1.2089    1.6590 C.3       1 <0>         0.0856
      8 C7          4.1206   -2.1686    1.2316 C.ar      1 <0>        -0.1080
      9 C8          4.2730   -3.3752    1.8883 C.ar      1 <0>        -0.0725
     10 C9          5.2639   -4.2557    1.4965 C.ar      1 <0>        -0.1289
     11 C10         6.1037   -3.9306    0.4473 C.ar      1 <0>        -0.0920
     12 C11         5.9530   -2.7251   -0.2110 C.ar      1 <0>        -0.1554
     13 C12         4.9572   -1.8445    0.1773 C.ar      1 <0>         0.1009
     14 F1          4.8059   -0.6677   -0.4687 F         1 <0>        -0.1391
     15 C13        -1.4038   -0.5452   -0.0390 C.2       1 <0>         0.3062
     16 N2         -2.3943   -0.0803   -0.8445 N.pl3     1 <0>        -0.5946
     17 H1         -2.3236    0.6455   -1.4841 H         1 <0>         0.4230
     18 C14        -3.5209   -0.8357   -0.5820 C.ar      1 <0>         0.0342
     19 C15        -4.8172   -0.8374   -1.0767 C.ar      1 <0>        -0.0791
     20 C16        -5.7418   -1.7446   -0.5975 C.ar      1 <0>        -0.1155
     21 C17        -5.3912   -2.6605    0.3773 C.ar      1 <0>        -0.0875
     22 C18        -4.0970   -2.6808    0.8908 C.ar      1 <0>        -0.0903
     23 C19        -3.1449   -1.7580    0.4084 C.ar      1 <0>         0.1045
     24 N3         -1.8465   -1.5311    0.6887 N.2       1 <0>        -0.4552
     25 C20        -3.7248   -3.6581    1.9296 C.2       1 <0>         0.5568
     26 O1         -2.5931   -3.6714    2.3744 O.2       1 <0>        -0.5083
     27 N4         -4.6388   -4.5371    2.3863 N.am      1 <0>        -0.8564
     28 H2          1.0039    1.9031    0.0027 H         1 <0>         0.0749
     29 H3         -0.5459    1.8868   -0.8726 H         1 <0>         0.0590
     30 H4         -0.5289    1.8773    0.9072 H         1 <0>         0.0672
     31 H5          0.3774   -1.4409   -1.5996 H         1 <0>         0.0798
     32 H6          0.8788    0.2385   -1.9837 H         1 <0>         0.0801
     33 H7          2.7494   -1.5410   -1.1822 H         1 <0>         0.0831
     34 H8          2.7852    0.1232   -0.5141 H         1 <0>         0.0569
     35 H9          1.1018    0.2984    1.8465 H         1 <0>         0.0524
     36 H10         0.0765   -1.1645    1.8326 H         1 <0>         0.1140
     37 H11         3.4237   -0.1894    1.6203 H         1 <0>         0.0492
     38 H12         2.7295   -1.4418    2.6775 H         1 <0>         0.0918
     39 H13         3.6178   -3.6301    2.7082 H         1 <0>         0.1343
     40 H14         5.3824   -5.1981    2.0105 H         1 <0>         0.1302
     41 H15         6.8781   -4.6190    0.1425 H         1 <0>         0.1318
     42 H16         6.6093   -2.4713   -1.0303 H         1 <0>         0.1339
     43 H17        -5.1040   -0.1273   -1.8382 H         1 <0>         0.1282
     44 H18        -6.7488   -1.7383   -0.9878 H         1 <0>         0.1384
     45 H19        -6.1250   -3.3636    0.7426 H         1 <0>         0.1341
     46 H20        -5.5415   -4.5265    2.0315 H         1 <0>         0.3979
     47 H21        -4.3938   -5.1802    3.0699 H         1 <0>         0.4048
@<TRIPOS>BOND
     1    1    2 1
     2    1   28 1
     3    1   29 1
     4    1   30 1
     5    2    6 1
     6    2    3 1
     7    2   15 1
     8    3    4 1
     9    3   31 1
    10    3   32 1
    11    4    5 1
    12    4   33 1
    13    4   34 1
    14    5    6 1
    15    5    7 1
    16    6   35 1
    17    6   36 1
    18    7    8 1
    19    7   37 1
    20    7   38 1
    21    8   13 ar
    22    8    9 ar
    23    9   10 ar
    24    9   39 1
    25   10   11 ar
    26   10   40 1
    27   11   12 ar
    28   11   41 1
    29   12   13 ar
    30   12   42 1
    31   13   14 1
    32   15   24 2
    33   15   16 1
    34   16   17 1
    35   16   18 1
    36   18   23 ar
    37   18   19 ar
    38   19   20 ar
    39   19   43 1
    40   20   21 ar
    41   20   44 1
    42   21   22 ar
    43   21   45 1
    44   22   23 ar
    45   22   25 1
    46   23   24 1
    47   25   26 2
    48   25   27 am
    49   27   46 1
    50   27   47 1
@<TRIPOS>MOLECULE
CHEMBL482059
   64    67     0     0     0
SMALL
USER_CHARGES

@<TRIPOS>ATOM
      1 C1          1.7022    8.1283   -1.0185 C.ar      1 <0>        -0.1665
      2 C2          3.0514    7.8133   -1.0111 C.ar      1 <0>        -0.0488
      3 C3          3.4686    6.5360   -0.6943 C.ar      1 <0>        -0.2204
      4 C4          2.5366    5.5579   -0.3802 C.ar      1 <0>         0.1895
      5 C5          1.1710    5.8726   -0.3862 C.ar      1 <0>        -0.1794
      6 C6          0.7627    7.1691   -0.7090 C.ar      1 <0>        -0.0476
      7 C7          0.1704    4.8405   -0.0543 C.2       1 <0>         0.5641
      8 O1          0.5296    3.7131    0.2254 O.2       1 <0>        -0.5218
      9 N1         -1.1420    5.1474   -0.0612 N.am      1 <0>        -0.8556
     10 O2          2.9451    4.3023   -0.0692 O.3       1 <0>        -0.2782
     11 C8          4.3526    4.0556   -0.0843 C.3       1 <0>         0.0559
     12 C9          4.6185    2.5959    0.2892 C.3       1 <0>        -0.0752
     13 C10         6.1028    2.3357    0.2733 C.ar      1 <0>        -0.0991
     14 C11         6.7169    1.9136   -0.8937 C.ar      1 <0>        -0.0582
     15 C12         8.0774    1.6722   -0.9187 C.ar      1 <0>        -0.1532
     16 C13         8.8353    1.8519    0.2244 C.ar      1 <0>         0.1516
     17 C14         8.2204    2.2785    1.4054 C.ar      1 <0>        -0.1650
     18 C15         6.8456    2.5243    1.4192 C.ar      1 <0>        -0.0562
     19 C16         9.0214    2.4726    2.6310 C.2       1 <0>         0.5652
     20 O3         10.0707    3.0844    2.5808 O.2       1 <0>        -0.5164
     21 N2          8.5890    1.9715    3.8050 N.am      1 <0>        -0.6067
     22 C17         7.3896    1.1241    3.8603 C.3       1 <0>         0.0838
     23 C18         7.7580   -0.2034    4.5343 C.3       1 <0>         0.0913
     24 N3          8.4778    0.0875    5.7822 N.am      1 <0>        -0.6147
     25 C19         9.6773    0.9349    5.7269 C.3       1 <0>         0.0971
     26 C20         9.3120    2.2578    5.0521 C.3       1 <0>         0.0992
     27 C21         8.0454   -0.4136    6.9562 C.2       1 <0>         0.5243
     28 O4          8.5998   -0.1028    7.9892 O.2       1 <0>        -0.5324
     29 C22         6.8732   -1.3602    6.9855 C.3       1 <0>        -0.1151
     30 C23         7.2815   -2.7462    6.4275 C.3       1 <0>        -0.1126
     31 C24         6.2394   -3.6943    7.0711 C.3       1 <0>        -0.1236
     32 C25         6.0451   -3.1323    8.4946 C.3       1 <0>        -0.1255
     33 C26         6.4480   -1.6483    8.4401 C.3       1 <0>        -0.1142
     34 F1         10.1653    1.6155    0.1998 F         1 <0>        -0.1211
     35 H1          1.3857    9.1314   -1.2636 H         1 <0>         0.1321
     36 H2          3.7809    8.5714   -1.2549 H         1 <0>         0.1317
     37 H3          4.5221    6.2980   -0.6914 H         1 <0>         0.1354
     38 H4         -0.2879    7.4192   -0.7157 H         1 <0>         0.1332
     39 H5         -1.4286    6.0469   -0.2843 H         1 <0>         0.3986
     40 H6         -1.7999    4.4689    0.1570 H         1 <0>         0.4054
     41 H7          4.7453    4.2527   -1.0818 H         1 <0>         0.0673
     42 H8          4.8439    4.7102    0.6355 H         1 <0>         0.0658
     43 H9          4.2258    2.3988    1.2867 H         1 <0>         0.0906
     44 H10         4.1272    1.9413   -0.4306 H         1 <0>         0.0930
     45 H11         6.1295    1.7718   -1.7888 H         1 <0>         0.1421
     46 H12         8.5496    1.3425   -1.8323 H         1 <0>         0.1470
     47 H13         6.3647    2.8575    2.3270 H         1 <0>         0.1403
     48 H14         6.6138    1.6254    4.4391 H         1 <0>         0.0807
     49 H15         7.0295    0.9335    2.8493 H         1 <0>         0.1044
     50 H16         6.8506   -0.7645    4.7576 H         1 <0>         0.1034
     51 H17         8.3971   -0.7857    3.8705 H         1 <0>         0.0777
     52 H18        10.0373    1.1255    6.7379 H         1 <0>         0.1082
     53 H19        10.4530    0.4337    5.1481 H         1 <0>         0.0741
     54 H20        10.2212    2.8157    4.8280 H         1 <0>         0.1081
     55 H21         8.6763    2.8416    5.7178 H         1 <0>         0.0771
     56 H22         6.0380   -0.9493    6.4182 H         1 <0>         0.0992
     57 H23         7.2007   -2.7641    5.3406 H         1 <0>         0.0730
     58 H24         8.2906   -3.0085    6.7452 H         1 <0>         0.0725
     59 H25         5.3013   -3.6625    6.5171 H         1 <0>         0.0695
     60 H26         6.6248   -4.7130    7.1125 H         1 <0>         0.0699
     61 H27         5.0009   -3.2250    8.7933 H         1 <0>         0.0664
     62 H28         6.6838   -3.6671    9.1976 H         1 <0>         0.0660
     63 H29         7.2823   -1.4628    9.1167 H         1 <0>         0.0852
     64 H30         5.5994   -1.0207    8.7124 H         1 <0>         0.0673
@<TRIPOS>BOND
     1    1    6 ar
     2    1    2 ar
     3    1   35 1
     4    2    3 ar
     5    2   36 1
     6    3    4 ar
     7    3   37 1
     8    4    5 ar
     9    4   10 1
    10    5    6 ar
    11    5    7 1
    12    6   38 1
    13    7    8 2
    14    7    9 am
    15    9   39 1
    16    9   40 1
    17   10   11 1
    18   11   12 1
    19   11   41 1
    20   11   42 1
    21   12   13 1
    22   12   43 1
    23   12   44 1
    24   13   18 ar
    25   13   14 ar
    26   14   15 ar
    27   14   45 1
    28   15   16 ar
    29   15   46 1
    30   16   17 ar
    31   16   34 1
    32   17   18 ar
    33   17   19 1
    34   18   47 1
    35   19   20 2
    36   19   21 am
    37   21   26 1
    38   21   22 1
    39   22   23 1
    40   22   48 1
    41   22   49 1
    42   23   24 1
    43   23   50 1
    44   23   51 1
    45   24   25 1
    46   24   27 am
    47   25   26 1
    48   25   52 1
    49   25   53 1
    50   26   54 1
    51   26   55 1
    52   27   28 2
    53   27   29 1
    54   29   33 1
    55   29   30 1
    56   29   56 1
    57   30   31 1
    58   30   57 1
    59   30   58 1
    60   31   32 1
    61   31   59 1
    62   31   60 1
    63   32   33 1
    64   32   61 1
    65   32   62 1
    66   33   63 1
    67   33   64 1
@<TRIPOS>MOLECULE
CHEMBL561717
   46    49     0     0     0
SMALL
USER_CHARGES

@<TRIPOS>ATOM
      1 C1         -0.0178    1.4648    0.0101 C.3       1 <0>        -0.0463
      2 N1          0.0021   -0.0041    0.0020 N.4       1 <0>        -0.3852
      3 C2         -1.3756   -0.5106    0.0035 C.3       1 <0>        -0.0046
      4 C3         -1.3615   -2.0381   -0.0867 C.3       1 <0>        -0.1400
      5 C4         -0.6051   -2.6081    1.1167 C.3       1 <0>        -0.1131
      6 C5          0.8066   -2.0155    1.1472 C.3       1 <0>        -0.1478
      7 C6          0.7122   -0.4888    1.1916 C.3       1 <0>        -0.0058
      8 C7         -0.5183   -4.1305    0.9921 C.3       1 <0>         0.1252
      9 N2          0.0990   -4.6849    2.1995 N.am      1 <0>        -0.7303
     10 C8          0.2793   -6.0156    2.3140 C.2       1 <0>         0.6150
     11 O1         -0.0703   -6.7559    1.4154 O.2       1 <0>        -0.5204
     12 C9          0.9022   -6.5749    3.5321 C.2       1 <0>         0.0535
     13 C10         1.1515   -7.9331    3.7752 C.2       1 <0>        -0.2845
     14 C11         1.7425   -8.0351    5.0234 C.2       1 <0>         0.3621
     15 N3          2.1718   -9.1093    5.7136 N.2       1 <0>        -0.6105
     16 C12         2.7153   -9.0022    6.9037 C.2       1 <0>         0.4750
     17 O2          3.1360  -10.1036    7.5685 O.3       1 <0>        -0.6469
     18 C13         2.8604   -7.6692    7.5026 C.ar      1 <0>        -0.1563
     19 C14         3.4301   -7.4883    8.7635 C.ar      1 <0>        -0.0345
     20 C15         3.5439   -6.2267    9.2789 C.ar      1 <0>        -0.1545
     21 C16         3.0982   -5.1264    8.5605 C.ar      1 <0>        -0.0845
     22 C17         2.5317   -5.2837    7.3125 C.ar      1 <0>        -0.1464
     23 C18         2.4081   -6.5559    6.7715 C.ar      1 <0>         0.1920
     24 N4          1.8476   -6.7647    5.5229 N.pl3     1 <0>        -0.3456
     25 N5          1.3232   -5.8790    4.5731 N.2       1 <0>        -0.3290
     26 H1          1.0047    1.8421    0.0024 H         1 <0>         0.1228
     27 H2         -0.5450    1.8259   -0.8730 H         1 <0>         0.1224
     28 H3         -0.5280    1.8163    0.9069 H         1 <0>         0.1208
     29 H4         -1.8732   -0.2060    0.9241 H         1 <0>         0.1287
     30 H5         -1.9135   -0.1015   -0.8518 H         1 <0>         0.1312
     31 H6         -2.3852   -2.4123   -0.0837 H         1 <0>         0.1168
     32 H7         -0.8642   -2.3438   -1.0072 H         1 <0>         0.0930
     33 H8         -1.1305   -2.3457    2.0350 H         1 <0>         0.0977
     34 H9          1.3327   -2.3735    2.0321 H         1 <0>         0.1161
     35 H10         1.3489   -2.3207    0.2523 H         1 <0>         0.0930
     36 H11         1.7157   -0.0637    1.2136 H         1 <0>         0.1314
     37 H12         0.1701   -0.1847    2.0870 H         1 <0>         0.1292
     38 H13        -1.5203   -4.5431    0.8742 H         1 <0>         0.0781
     39 H14         0.0861   -4.3901    0.1230 H         1 <0>         0.0740
     40 H15         0.3780   -4.0942    2.9165 H         1 <0>         0.4067
     41 H16         0.9233   -8.7521    3.1092 H         1 <0>         0.1519
     42 H17         3.7788   -8.3396    9.3292 H         1 <0>         0.1420
     43 H18         3.9846   -6.0854   10.2547 H         1 <0>         0.1268
     44 H19         3.1954   -4.1371    8.9827 H         1 <0>         0.1261
     45 H20         2.1865   -4.4223    6.7599 H         1 <0>         0.1304
     46 H21         0.4767   -0.3284   -0.8272 H         1 <0>         0.4247
@<TRIPOS>BOND
     1    1    2 1
     2    1   26 1
     3    1   27 1
     4    1   28 1
     5    2    7 1
     6    2    3 1
     7    2   46 1
     8    3    4 1
     9    3   29 1
    10    3   30 1
    11    4    5 1
    12    4   31 1
    13    4   32 1
    14    5    6 1
    15    5    8 1
    16    5   33 1
    17    6    7 1
    18    6   34 1
    19    6   35 1
    20    7   36 1
    21    7   37 1
    22    8    9 1
    23    8   38 1
    24    8   39 1
    25    9   10 am
    26    9   40 1
    27   10   11 2
    28   10   12 1
    29   12   25 2
    30   12   13 1
    31   13   14 2
    32   13   41 1
    33   14   24 1
    34   14   15 1
    35   15   16 2
    36   16   17 1
    37   16   18 1
    38   18   23 ar
    39   18   19 ar
    40   19   20 ar
    41   19   42 1
    42   20   21 ar
    43   20   43 1
    44   21   22 ar
    45   21   44 1
    46   22   23 ar
    47   22   45 1
    48   23   24 1
    49   24   25 1
@<TRIPOS>MOLECULE
CHEMBL559584
   56    60     0     0     0
SMALL
USER_CHARGES

@<TRIPOS>ATOM
      1 C1         -0.0165    1.3634    0.0095 C.ar      1 <0>        -0.1576
      2 C2          1.1676    2.0867    0.0021 C.ar      1 <0>        -0.0850
      3 C3          2.3865    1.4407   -0.0134 C.ar      1 <0>        -0.1450
      4 C4          2.4265    0.0533   -0.0212 C.ar      1 <0>         0.1949
      5 C5          1.2244   -0.6770   -0.0132 C.ar      1 <0>        -0.1583
      6 C6          0.0021   -0.0041    0.0020 C.ar      1 <0>        -0.0367
      7 C7          1.2997   -2.1436   -0.0222 C.2       1 <0>         0.4744
      8 O1          0.1704   -2.8896   -0.0155 O.3       1 <0>        -0.6567
      9 N1          2.4789   -2.7201   -0.0374 N.2       1 <0>        -0.6111
     10 C8          3.6232   -2.0093   -0.0449 C.2       1 <0>         0.3566
     11 N2          3.6247   -0.6402   -0.0372 N.pl3     1 <0>        -0.3479
     12 N3          4.9563   -0.2064   -0.0482 N.2       1 <0>        -0.3212
     13 C9          5.7465   -1.2651   -0.0622 C.2       1 <0>         0.0604
     14 C10         4.9466   -2.4167   -0.0614 C.2       1 <0>        -0.2843
     15 C11         7.2242   -1.2398   -0.0778 C.2       1 <0>         0.6099
     16 O2          7.8498   -2.2820   -0.0904 O.2       1 <0>        -0.5280
     17 N4          7.8781   -0.0613   -0.0780 N.am      1 <0>        -0.7234
     18 C12         9.3428   -0.0363   -0.0935 C.3       1 <0>         0.1225
     19 C13         9.8281    1.4147   -0.0904 C.3       1 <0>        -0.1595
     20 C14        11.3578    1.4409   -0.1066 C.3       1 <0>         0.1164
     21 C15        11.8861    0.6861   -1.3440 C.3       1 <0>        -0.1216
     22 C16        13.1593   -0.0340   -0.8346 C.3       1 <0>        -0.1164
     23 C17        12.7556   -0.4715    0.5953 C.3       1 <0>        -0.1232
     24 C18        11.9106    0.7048    1.1264 C.3       1 <0>        -0.1194
     25 N5         11.8368    2.8295   -0.1204 N.3       1 <0>        -0.5174
     26 C19        11.4597    3.5292    1.1163 C.3       1 <0>         0.0090
     27 C20        12.0284    4.9503    1.0859 C.3       1 <0>         0.0646
     28 O3         11.5539    5.6234   -0.0834 O.3       1 <0>        -0.3860
     29 C21        11.9039    4.9695   -1.3061 C.3       1 <0>         0.0647
     30 C22        11.3339    3.5486   -1.3000 C.3       1 <0>         0.0082
     31 H1         -0.9619    1.8853    0.0259 H         1 <0>         0.1246
     32 H2          1.1347    3.1662    0.0082 H         1 <0>         0.1257
     33 H3          3.3037    2.0108   -0.0198 H         1 <0>         0.1328
     34 H4         -0.9239   -0.5599    0.0082 H         1 <0>         0.1399
     35 H5          5.2991   -3.4375   -0.0705 H         1 <0>         0.1517
     36 H6          7.3788    0.7703   -0.0680 H         1 <0>         0.4066
     37 H7          9.7243   -0.5489    0.7895 H         1 <0>         0.0718
     38 H8          9.7053   -0.5387   -0.9903 H         1 <0>         0.0731
     39 H9          9.4466    1.9273   -0.9735 H         1 <0>         0.0734
     40 H10         9.4656    1.9172    0.8063 H         1 <0>         0.0724
     41 H11        11.1505   -0.0394   -1.6911 H         1 <0>         0.0779
     42 H12        12.1371    1.3872   -2.1400 H         1 <0>         0.0722
     43 H13        13.3865   -0.9015   -1.4543 H         1 <0>         0.0641
     44 H14        14.0054    0.6525   -0.8041 H         1 <0>         0.0686
     45 H15        12.1604   -1.3840    0.5614 H         1 <0>         0.0682
     46 H16        13.6411   -0.6153    1.2146 H         1 <0>         0.0646
     47 H17        12.5350    1.3777    1.7141 H         1 <0>         0.0747
     48 H18        11.0891    0.3290    1.7363 H         1 <0>         0.0700
     49 H19        10.3733    3.5736    1.1925 H         1 <0>         0.0474
     50 H20        11.8640    2.9937    1.9752 H         1 <0>         0.0900
     51 H21        11.7035    5.4915    1.9745 H         1 <0>         0.0964
     52 H22        13.1173    4.9062    1.0637 H         1 <0>         0.0580
     53 H23        11.4889    5.5245   -2.1474 H         1 <0>         0.0965
     54 H24        12.9892    4.9259   -1.3978 H         1 <0>         0.0580
     55 H25        11.6463    3.0271   -2.2047 H         1 <0>         0.0901
     56 H26        10.2455    3.5932   -1.2623 H         1 <0>         0.0486
@<TRIPOS>BOND
     1    1    6 ar
     2    1    2 ar
     3    1   31 1
     4    2    3 ar
     5    2   32 1
     6    3    4 ar
     7    3   33 1
     8    4   11 1
     9    4    5 ar
    10    5    6 ar
    11    5    7 1
    12    6   34 1
    13    7    8 1
    14    7    9 2
    15    9   10 1
    16   10   14 2
    17   10   11 1
    18   11   12 1
    19   12   13 2
    20   13   14 1
    21   13   15 1
    22   14   35 1
    23   15   16 2
    24   15   17 am
    25   17   18 1
    26   17   36 1
    27   18   19 1
    28   18   37 1
    29   18   38 1
    30   19   20 1
    31   19   39 1
    32   19   40 1
    33   20   24 1
    34   20   21 1
    35   20   25 1
    36   21   22 1
    37   21   41 1
    38   21   42 1
    39   22   23 1
    40   22   43 1
    41   22   44 1
    42   23   24 1
    43   23   45 1
    44   23   46 1
    45   24   47 1
    46   24   48 1
    47   25   30 1
    48   25   26 1
    49   26   27 1
    50   26   49 1
    51   26   50 1
    52   27   28 1
    53   27   51 1
    54   27   52 1
    55   28   29 1
    56   29   30 1
    57   29   53 1
    58   29   54 1
    59   30   55 1
    60   30   56 1
@<TRIPOS>MOLECULE
CHEMBL559584__1
   57    61     0     0     0
SMALL
USER_CHARGES

@<TRIPOS>ATOM
      1 C1         -0.0165    1.3634    0.0095 C.ar      1 <0>        -0.1539
      2 C2          1.1676    2.0867    0.0021 C.ar      1 <0>        -0.0842
      3 C3          2.3865    1.4407   -0.0134 C.ar      1 <0>        -0.1459
      4 C4          2.4265    0.0533   -0.0212 C.ar      1 <0>         0.1912
      5 C5          1.2244   -0.6770   -0.0132 C.ar      1 <0>        -0.1561
      6 C6          0.0021   -0.0041    0.0020 C.ar      1 <0>        -0.0349
      7 C7          1.2997   -2.1436   -0.0222 C.2       1 <0>         0.4754
      8 O1          0.1704   -2.8896   -0.0155 O.3       1 <0>        -0.6465
      9 N1          2.4789   -2.7201   -0.0374 N.2       1 <0>        -0.6108
     10 C8          3.6232   -2.0093   -0.0449 C.2       1 <0>         0.3623
     11 N2          3.6247   -0.6402   -0.0372 N.pl3     1 <0>        -0.3448
     12 N3          4.9563   -0.2064   -0.0482 N.2       1 <0>        -0.3272
     13 C9          5.7465   -1.2651   -0.0622 C.2       1 <0>         0.0517
     14 C10         4.9466   -2.4167   -0.0614 C.2       1 <0>        -0.2841
     15 C11         7.2242   -1.2398   -0.0778 C.2       1 <0>         0.6178
     16 O2          7.8498   -2.2820   -0.0904 O.2       1 <0>        -0.5204
     17 N4          7.8781   -0.0613   -0.0780 N.am      1 <0>        -0.7300
     18 C12         9.3428   -0.0363   -0.0935 C.3       1 <0>         0.1243
     19 C13         9.8281    1.4147   -0.0904 C.3       1 <0>        -0.1499
     20 C14        11.3578    1.4409   -0.1066 C.3       1 <0>         0.0566
     21 C15        11.8861    0.6861   -1.3440 C.3       1 <0>        -0.1457
     22 C16        13.1593   -0.0340   -0.8346 C.3       1 <0>        -0.1318
     23 C17        12.7556   -0.4715    0.5953 C.3       1 <0>        -0.1288
     24 C18        11.9106    0.7048    1.1264 C.3       1 <0>        -0.1410
     25 N5         11.8368    2.8295   -0.1204 N.4       1 <0>        -0.3741
     26 C19        11.3675    3.5217    1.0877 C.3       1 <0>        -0.0542
     27 C20        11.8681    4.9682    1.0711 C.3       1 <0>         0.0392
     28 O3         11.4045    5.6140   -0.1180 O.3       1 <0>        -0.3561
     29 C21        11.8163    4.9622   -1.3228 C.3       1 <0>         0.0393
     30 C22        11.3156    3.5158   -1.3106 C.3       1 <0>        -0.0559
     31 H1         -0.9619    1.8853    0.0259 H         1 <0>         0.1270
     32 H2          1.1347    3.1662    0.0082 H         1 <0>         0.1266
     33 H3          3.3037    2.0108   -0.0198 H         1 <0>         0.1309
     34 H4         -0.9239   -0.5599    0.0082 H         1 <0>         0.1421
     35 H5          5.2991   -3.4375   -0.0705 H         1 <0>         0.1519
     36 H6          7.3788    0.7703   -0.0680 H         1 <0>         0.4096
     37 H7          9.7243   -0.5489    0.7895 H         1 <0>         0.0799
     38 H8          9.7053   -0.5387   -0.9903 H         1 <0>         0.0801
     39 H9          9.4466    1.9273   -0.9735 H         1 <0>         0.0965
     40 H10         9.4656    1.9172    0.8063 H         1 <0>         0.0967
     41 H11        11.1505   -0.0394   -1.6911 H         1 <0>         0.1197
     42 H12        12.1371    1.3872   -2.1400 H         1 <0>         0.0883
     43 H13        13.3865   -0.9015   -1.4543 H         1 <0>         0.0929
     44 H14        14.0054    0.6525   -0.8041 H         1 <0>         0.0718
     45 H15        12.1604   -1.3840    0.5614 H         1 <0>         0.0892
     46 H16        13.6411   -0.6153    1.2146 H         1 <0>         0.0858
     47 H17        12.5350    1.3777    1.7141 H         1 <0>         0.0843
     48 H18        11.0891    0.3290    1.7363 H         1 <0>         0.1091
     49 H19        10.2778    3.5144    1.1109 H         1 <0>         0.1426
     50 H20        11.7537    3.0135    1.9712 H         1 <0>         0.1437
     51 H21        11.4855    5.4959    1.9447 H         1 <0>         0.1414
     52 H22        12.9580    4.9764    1.0884 H         1 <0>         0.0791
     53 H23        11.3961    5.4856   -2.1816 H         1 <0>         0.1414
     54 H24        12.9043    4.9703   -1.3874 H         1 <0>         0.0792
     55 H25        11.6632    3.0031   -2.2074 H         1 <0>         0.1445
     56 H26        10.2259    3.5084   -1.2865 H         1 <0>         0.1430
     57 H27        12.8456    2.8372   -0.1424 H         1 <0>         0.4206
@<TRIPOS>BOND
     1    1    6 ar
     2    1    2 ar
     3    1   31 1
     4    2    3 ar
     5    2   32 1
     6    3    4 ar
     7    3   33 1
     8    4   11 1
     9    4    5 ar
    10    5    6 ar
    11    5    7 1
    12    6   34 1
    13    7    8 1
    14    7    9 2
    15    9   10 1
    16   10   14 2
    17   10   11 1
    18   11   12 1
    19   12   13 2
    20   13   14 1
    21   13   15 1
    22   14   35 1
    23   15   16 2
    24   15   17 am
    25   17   18 1
    26   17   36 1
    27   18   19 1
    28   18   37 1
    29   18   38 1
    30   19   20 1
    31   19   39 1
    32   19   40 1
    33   20   24 1
    34   20   21 1
    35   20   25 1
    36   21   22 1
    37   21   41 1
    38   21   42 1
    39   22   23 1
    40   22   43 1
    41   22   44 1
    42   23   24 1
    43   23   45 1
    44   23   46 1
    45   24   47 1
    46   24   48 1
    47   25   30 1
    48   25   26 1
    49   25   57 1
    50   26   27 1
    51   26   49 1
    52   26   50 1
    53   27   28 1
    54   27   51 1
    55   27   52 1
    56   28   29 1
    57   29   30 1
    58   29   53 1
    59   29   54 1
    60   30   55 1
    61   30   56 1
@<TRIPOS>MOLECULE
CHEMBL195758
   54    57     0     0     0
SMALL
USER_CHARGES

@<TRIPOS>ATOM
      1 C1         -0.0167    1.3792    0.0096 C.ar      1 <0>        -0.1026
      2 C2          1.1683    2.0931    0.0021 C.ar      1 <0>        -0.1153
      3 C3          2.3774    1.4286   -0.0134 C.ar      1 <0>        -0.1018
      4 C4          2.4032    0.0335   -0.0212 C.ar      1 <0>        -0.0840
      5 C5          1.2045   -0.6806   -0.0131 C.ar      1 <0>        -0.1011
      6 C6          0.0021   -0.0041    0.0020 C.ar      1 <0>        -0.1150
      7 C7          3.6950   -0.6848   -0.0384 C.2       1 <0>        -0.0452
      8 C8          4.4943   -0.5772    1.0009 C.2       1 <0>        -0.1889
      9 C9          5.8233   -1.2710    1.0843 C.3       1 <0>         0.0342
     10 N1          6.2689   -1.6856   -0.2511 N.4       1 <0>        -0.3852
     11 C10         5.1971   -2.4623   -0.8938 C.3       1 <0>        -0.0033
     12 C11         4.0456   -1.5174   -1.2408 C.3       1 <0>        -0.1139
     13 C12         7.4741   -2.5169   -0.1311 C.3       1 <0>        -0.0123
     14 C13         8.6201   -1.6750    0.4337 C.3       1 <0>        -0.1329
     15 C14         9.8754   -2.5408    0.5587 C.3       1 <0>        -0.0665
     16 C15        11.0042   -1.7116    1.1150 C.2       1 <0>         0.3733
     17 N2         10.7997   -0.4671    1.4051 N.2       1 <0>        -0.5316
     18 C16        11.8989    0.3349    1.9296 C.3       1 <0>         0.0696
     19 C17        11.5959    1.8150    1.9452 C.3       1 <0>        -0.0974
     20 C18        11.2751    2.3335    0.5414 C.3       1 <0>        -0.0805
     21 S1         12.7358    2.0673   -0.5095 S.3       1 <0>        -0.2299
     22 C19        13.0684    0.2950   -0.2945 C.3       1 <0>        -0.0790
     23 C20        13.1910   -0.0219    1.2019 C.3       1 <0>        -0.1219
     24 C21        13.3572   -1.5295    1.3239 C.2       1 <0>         0.5235
     25 O1         14.4551   -2.0328    1.4315 O.2       1 <0>        -0.4819
     26 N3         12.2377   -2.2892    1.3132 N.am      1 <0>        -0.6956
     27 H1         -0.9604    1.9041    0.0260 H         1 <0>         0.1297
     28 H2          1.1469    3.1729    0.0082 H         1 <0>         0.1301
     29 H3          3.3018    1.9870   -0.0200 H         1 <0>         0.1239
     30 H4          1.2178   -1.7605   -0.0194 H         1 <0>         0.1241
     31 H5         -0.9265   -0.5556    0.0079 H         1 <0>         0.1302
     32 H6          4.1807    0.0380    1.8312 H         1 <0>         0.1505
     33 H7          6.5585   -0.5912    1.5147 H         1 <0>         0.1424
     34 H8          5.7318   -2.1497    1.7228 H         1 <0>         0.1382
     35 H9          5.5771   -2.9272   -1.8035 H         1 <0>         0.1379
     36 H10         4.8408   -3.2312   -0.2083 H         1 <0>         0.1328
     37 H11         3.1757   -2.0990   -1.5459 H         1 <0>         0.1251
     38 H12         4.3502   -0.8642   -2.0585 H         1 <0>         0.1073
     39 H13         7.2735   -3.3533    0.5384 H         1 <0>         0.1324
     40 H14         7.7527   -2.8970   -1.1140 H         1 <0>         0.1339
     41 H15         8.8208   -0.8386   -0.2358 H         1 <0>         0.0981
     42 H16         8.3416   -1.2949    1.4166 H         1 <0>         0.0999
     43 H17         9.6748   -3.3772    1.2282 H         1 <0>         0.1048
     44 H18        10.1540   -2.9209   -0.4242 H         1 <0>         0.1060
     45 H19        12.0333    0.0392    2.9700 H         1 <0>         0.0824
     46 H20        10.7413    1.9973    2.5967 H         1 <0>         0.0875
     47 H21        12.4609    2.3520    2.3347 H         1 <0>         0.0902
     48 H22        10.4241    1.7879    0.1334 H         1 <0>         0.0891
     49 H23        11.0432    3.3976    0.5863 H         1 <0>         0.1107
     50 H24        12.2497   -0.2832   -0.7228 H         1 <0>         0.0831
     51 H25        13.9995    0.0360   -0.7985 H         1 <0>         0.1163
     52 H26        14.0380    0.5066    1.6394 H         1 <0>         0.1370
     53 H27        12.3040   -3.2482    1.4431 H         1 <0>         0.4149
     54 H28         6.4742   -0.8691   -0.8071 H         1 <0>         0.4267
@<TRIPOS>BOND
     1    1    6 ar
     2    1    2 ar
     3    1   27 1
     4    2    3 ar
     5    2   28 1
     6    3    4 ar
     7    3   29 1
     8    4    5 ar
     9    4    7 1
    10    5    6 ar
    11    5   30 1
    12    6   31 1
    13    7   12 1
    14    7    8 2
    15    8    9 1
    16    8   32 1
    17    9   10 1
    18    9   33 1
    19    9   34 1
    20   10   11 1
    21   10   13 1
    22   10   54 1
    23   11   12 1
    24   11   35 1
    25   11   36 1
    26   12   37 1
    27   12   38 1
    28   13   14 1
    29   13   39 1
    30   13   40 1
    31   14   15 1
    32   14   41 1
    33   14   42 1
    34   15   16 1
    35   15   43 1
    36   15   44 1
    37   16   26 1
    38   16   17 2
    39   17   18 1
    40   18   23 1
    41   18   19 1
    42   18   45 1
    43   19   20 1
    44   19   46 1
    45   19   47 1
    46   20   21 1
    47   20   48 1
    48   20   49 1
    49   21   22 1
    50   22   23 1
    51   22   50 1
    52   22   51 1
    53   23   24 1
    54   23   52 1
    55   24   25 2
    56   24   26 am
    57   26   53 1
@<TRIPOS>MOLECULE
CHEMBL195758__1
   54    57     0     0     0
SMALL
USER_CHARGES

@<TRIPOS>ATOM
      1 C1         -0.0167    1.3792    0.0096 C.ar      1 <0>        -0.1027
      2 C2          1.1683    2.0931    0.0021 C.ar      1 <0>        -0.1154
      3 C3          2.3774    1.4286   -0.0134 C.ar      1 <0>        -0.1018
      4 C4          2.4032    0.0335   -0.0212 C.ar      1 <0>        -0.0839
      5 C5          1.2045   -0.6806   -0.0131 C.ar      1 <0>        -0.1012
      6 C6          0.0021   -0.0041    0.0020 C.ar      1 <0>        -0.1150
      7 C7          3.6950   -0.6848   -0.0384 C.2       1 <0>        -0.0456
      8 C8          4.4943   -0.5772    1.0009 C.2       1 <0>        -0.1887
      9 C9          5.8233   -1.2710    1.0843 C.3       1 <0>         0.0341
     10 N1          6.2689   -1.6856   -0.2511 N.4       1 <0>        -0.3852
     11 C10         5.1971   -2.4623   -0.8938 C.3       1 <0>        -0.0033
     12 C11         4.0456   -1.5174   -1.2408 C.3       1 <0>        -0.1139
     13 C12         7.4741   -2.5169   -0.1311 C.3       1 <0>        -0.0126
     14 C13         8.6201   -1.6750    0.4337 C.3       1 <0>        -0.1319
     15 C14         9.8754   -2.5408    0.5587 C.3       1 <0>        -0.0688
     16 C15        11.0042   -1.7116    1.1150 C.2       1 <0>         0.3841
     17 N2         10.7879   -0.4775    1.3988 N.2       1 <0>        -0.5466
     18 C16        11.8236    0.3775    1.9694 C.3       1 <0>         0.0790
     19 C17        11.5507    1.8411    1.6342 C.3       1 <0>        -0.0978
     20 C18        12.4154    2.7427    2.5214 C.3       1 <0>        -0.0922
     21 S1         14.1669    2.4078    2.1681 S.3       1 <0>        -0.2342
     22 C19        14.2852    0.6008    2.3368 C.3       1 <0>        -0.0710
     23 C20        13.2010   -0.0397    1.4643 C.3       1 <0>        -0.1312
     24 C21        13.3243   -1.5404    1.5173 C.2       1 <0>         0.5249
     25 O1         14.3949   -2.0598    1.7505 O.2       1 <0>        -0.4850
     26 N3         12.2293   -2.3008    1.3076 N.am      1 <0>        -0.6914
     27 H1         -0.9604    1.9041    0.0260 H         1 <0>         0.1297
     28 H2          1.1469    3.1729    0.0082 H         1 <0>         0.1300
     29 H3          3.3018    1.9870   -0.0200 H         1 <0>         0.1239
     30 H4          1.2178   -1.7605   -0.0194 H         1 <0>         0.1242
     31 H5         -0.9265   -0.5556    0.0079 H         1 <0>         0.1302
     32 H6          4.1807    0.0380    1.8312 H         1 <0>         0.1504
     33 H7          6.5585   -0.5912    1.5147 H         1 <0>         0.1427
     34 H8          5.7318   -2.1497    1.7228 H         1 <0>         0.1382
     35 H9          5.5771   -2.9272   -1.8035 H         1 <0>         0.1379
     36 H10         4.8408   -3.2312   -0.2083 H         1 <0>         0.1328
     37 H11         3.1757   -2.0990   -1.5459 H         1 <0>         0.1249
     38 H12         4.3502   -0.8642   -2.0585 H         1 <0>         0.1073
     39 H13         7.2735   -3.3533    0.5384 H         1 <0>         0.1320
     40 H14         7.7527   -2.8970   -1.1140 H         1 <0>         0.1339
     41 H15         8.8208   -0.8386   -0.2358 H         1 <0>         0.0994
     42 H16         8.3416   -1.2949    1.4166 H         1 <0>         0.0992
     43 H17         9.6748   -3.3772    1.2282 H         1 <0>         0.1048
     44 H18        10.1540   -2.9209   -0.4242 H         1 <0>         0.1059
     45 H19        11.8035    0.2733    3.0543 H         1 <0>         0.0870
     46 H20        11.7912    2.0243    0.5870 H         1 <0>         0.0812
     47 H21        10.4978    2.0629    1.8083 H         1 <0>         0.0903
     48 H22        12.1929    3.7879    2.3068 H         1 <0>         0.1177
     49 H23        12.2074    2.5308    3.5702 H         1 <0>         0.0884
     50 H24        15.2679    0.2654    2.0051 H         1 <0>         0.1256
     51 H25        14.1310    0.3192    3.3784 H         1 <0>         0.0917
     52 H26        13.3238    0.2919    0.4333 H         1 <0>         0.1254
     53 H27        12.3080   -3.2674    1.2891 H         1 <0>         0.4159
     54 H28         6.4742   -0.8691   -0.8071 H         1 <0>         0.4267
@<TRIPOS>BOND
     1    1    6 ar
     2    1    2 ar
     3    1   27 1
     4    2    3 ar
     5    2   28 1
     6    3    4 ar
     7    3   29 1
     8    4    5 ar
     9    4    7 1
    10    5    6 ar
    11    5   30 1
    12    6   31 1
    13    7   12 1
    14    7    8 2
    15    8    9 1
    16    8   32 1
    17    9   10 1
    18    9   33 1
    19    9   34 1
    20   10   11 1
    21   10   13 1
    22   10   54 1
    23   11   12 1
    24   11   35 1
    25   11   36 1
    26   12   37 1
    27   12   38 1
    28   13   14 1
    29   13   39 1
    30   13   40 1
    31   14   15 1
    32   14   41 1
    33   14   42 1
    34   15   16 1
    35   15   43 1
    36   15   44 1
    37   16   26 1
    38   16   17 2
    39   17   18 1
    40   18   23 1
    41   18   19 1
    42   18   45 1
    43   19   20 1
    44   19   46 1
    45   19   47 1
    46   20   21 1
    47   20   48 1
    48   20   49 1
    49   21   22 1
    50   22   23 1
    51   22   50 1
    52   22   51 1
    53   23   24 1
    54   23   52 1
    55   24   25 2
    56   24   26 am
    57   26   53 1
@<TRIPOS>MOLECULE
CHEMBL195758__2
   54    57     0     0     0
SMALL
USER_CHARGES

@<TRIPOS>ATOM
      1 C1         -0.0167    1.3792    0.0096 C.ar      1 <0>        -0.1027
      2 C2          1.1683    2.0931    0.0021 C.ar      1 <0>        -0.1154
      3 C3          2.3774    1.4286   -0.0134 C.ar      1 <0>        -0.1019
      4 C4          2.4032    0.0335   -0.0212 C.ar      1 <0>        -0.0838
      5 C5          1.2045   -0.6806   -0.0131 C.ar      1 <0>        -0.1012
      6 C6          0.0021   -0.0041    0.0020 C.ar      1 <0>        -0.1150
      7 C7          3.6950   -0.6848   -0.0384 C.2       1 <0>        -0.0458
      8 C8          4.4943   -0.5772    1.0009 C.2       1 <0>        -0.1885
      9 C9          5.8233   -1.2710    1.0843 C.3       1 <0>         0.0339
     10 N1          6.2689   -1.6856   -0.2511 N.4       1 <0>        -0.3852
     11 C10         5.1971   -2.4623   -0.8938 C.3       1 <0>        -0.0033
     12 C11         4.0456   -1.5174   -1.2408 C.3       1 <0>        -0.1138
     13 C12         7.4741   -2.5169   -0.1311 C.3       1 <0>        -0.0126
     14 C13         8.6201   -1.6750    0.4337 C.3       1 <0>        -0.1319
     15 C14         9.8754   -2.5408    0.5587 C.3       1 <0>        -0.0687
     16 C15        11.0042   -1.7116    1.1150 C.2       1 <0>         0.3842
     17 N2         10.7879   -0.4775    1.3988 N.2       1 <0>        -0.5465
     18 C16        11.8401    0.3935    1.9121 C.3       1 <0>         0.0788
     19 C17        11.2370    1.5351    2.7258 C.3       1 <0>        -0.0977
     20 C18        12.2927    2.6230    2.9483 C.3       1 <0>        -0.0922
     21 S1         13.6666    1.9198    3.9089 S.3       1 <0>        -0.2343
     22 C19        14.1023    0.4224    2.9731 C.3       1 <0>        -0.0710
     23 C20        12.8294   -0.4022    2.7573 C.3       1 <0>        -0.1316
     24 C21        13.1696   -1.6914    2.0556 C.2       1 <0>         0.5250
     25 O1         14.2752   -2.1767    2.1669 O.2       1 <0>        -0.4853
     26 N3         12.2293   -2.3008    1.3076 N.am      1 <0>        -0.6907
     27 H1         -0.9604    1.9041    0.0260 H         1 <0>         0.1297
     28 H2          1.1469    3.1729    0.0082 H         1 <0>         0.1300
     29 H3          3.3018    1.9870   -0.0200 H         1 <0>         0.1239
     30 H4          1.2178   -1.7605   -0.0194 H         1 <0>         0.1242
     31 H5         -0.9265   -0.5556    0.0079 H         1 <0>         0.1302
     32 H6          4.1807    0.0380    1.8312 H         1 <0>         0.1505
     33 H7          6.5585   -0.5912    1.5147 H         1 <0>         0.1428
     34 H8          5.7318   -2.1497    1.7228 H         1 <0>         0.1384
     35 H9          5.5771   -2.9272   -1.8035 H         1 <0>         0.1378
     36 H10         4.8408   -3.2312   -0.2083 H         1 <0>         0.1328
     37 H11         3.1757   -2.0990   -1.5459 H         1 <0>         0.1249
     38 H12         4.3502   -0.8642   -2.0585 H         1 <0>         0.1071
     39 H13         7.2735   -3.3533    0.5384 H         1 <0>         0.1321
     40 H14         7.7527   -2.8970   -1.1140 H         1 <0>         0.1338
     41 H15         8.8208   -0.8386   -0.2358 H         1 <0>         0.0991
     42 H16         8.3416   -1.2949    1.4166 H         1 <0>         0.0995
     43 H17         9.6748   -3.3772    1.2282 H         1 <0>         0.1059
     44 H18        10.1540   -2.9209   -0.4242 H         1 <0>         0.1050
     45 H19        12.3743    0.8300    1.0681 H         1 <0>         0.0871
     46 H20        10.3893    1.9571    2.1859 H         1 <0>         0.0904
     47 H21        10.8994    1.1545    3.6898 H         1 <0>         0.0811
     48 H22        12.6628    2.9751    1.9854 H         1 <0>         0.0884
     49 H23        11.8506    3.4541    3.4978 H         1 <0>         0.1177
     50 H24        14.5248    0.7032    2.0084 H         1 <0>         0.0917
     51 H25        14.8275   -0.1641    3.5372 H         1 <0>         0.1256
     52 H26        12.3783   -0.6303    3.7230 H         1 <0>         0.1254
     53 H27        12.4210   -3.1597    0.8997 H         1 <0>         0.4157
     54 H28         6.4742   -0.8691   -0.8071 H         1 <0>         0.4266
@<TRIPOS>BOND
     1    1    6 ar
     2    1    2 ar
     3    1   27 1
     4    2    3 ar
     5    2   28 1
     6    3    4 ar
     7    3   29 1
     8    4    5 ar
     9    4    7 1
    10    5    6 ar
    11    5   30 1
    12    6   31 1
    13    7   12 1
    14    7    8 2
    15    8    9 1
    16    8   32 1
    17    9   10 1
    18    9   33 1
    19    9   34 1
    20   10   11 1
    21   10   13 1
    22   10   54 1
    23   11   12 1
    24   11   35 1
    25   11   36 1
    26   12   37 1
    27   12   38 1
    28   13   14 1
    29   13   39 1
    30   13   40 1
    31   14   15 1
    32   14   41 1
    33   14   42 1
    34   15   16 1
    35   15   43 1
    36   15   44 1
    37   16   26 1
    38   16   17 2
    39   17   18 1
    40   18   23 1
    41   18   19 1
    42   18   45 1
    43   19   20 1
    44   19   46 1
    45   19   47 1
    46   20   21 1
    47   20   48 1
    48   20   49 1
    49   21   22 1
    50   22   23 1
    51   22   50 1
    52   22   51 1
    53   23   24 1
    54   23   52 1
    55   24   25 2
    56   24   26 am
    57   26   53 1
@<TRIPOS>MOLECULE
CHEMBL195758__3
   54    57     0     0     0
SMALL
USER_CHARGES

@<TRIPOS>ATOM
      1 C1         -0.0167    1.3792    0.0096 C.ar      1 <0>        -0.1027
      2 C2          1.1683    2.0931    0.0021 C.ar      1 <0>        -0.1153
      3 C3          2.3774    1.4286   -0.0134 C.ar      1 <0>        -0.1018
      4 C4          2.4032    0.0335   -0.0212 C.ar      1 <0>        -0.0838
      5 C5          1.2045   -0.6806   -0.0131 C.ar      1 <0>        -0.1011
      6 C6          0.0021   -0.0041    0.0020 C.ar      1 <0>        -0.1149
      7 C7          3.6950   -0.6848   -0.0384 C.2       1 <0>        -0.0456
      8 C8          4.4943   -0.5772    1.0009 C.2       1 <0>        -0.1884
      9 C9          5.8233   -1.2710    1.0843 C.3       1 <0>         0.0341
     10 N1          6.2689   -1.6856   -0.2511 N.4       1 <0>        -0.3851
     11 C10         5.1971   -2.4623   -0.8938 C.3       1 <0>        -0.0033
     12 C11         4.0456   -1.5174   -1.2408 C.3       1 <0>        -0.1138
     13 C12         7.4741   -2.5169   -0.1311 C.3       1 <0>        -0.0123
     14 C13         8.6201   -1.6750    0.4337 C.3       1 <0>        -0.1329
     15 C14         9.8754   -2.5408    0.5587 C.3       1 <0>        -0.0664
     16 C15        11.0042   -1.7116    1.1150 C.2       1 <0>         0.3734
     17 N2         10.7997   -0.4671    1.4051 N.2       1 <0>        -0.5314
     18 C16        11.8908    0.3270    1.9577 C.3       1 <0>         0.0695
     19 C17        11.4333    1.6564    2.5112 C.3       1 <0>        -0.0976
     20 C18        10.3913    1.4712    3.6168 C.3       1 <0>        -0.0803
     21 S1         11.1610    0.5309    4.9704 S.3       1 <0>        -0.2299
     22 C19        11.7987   -0.9438    4.1239 C.3       1 <0>        -0.0788
     23 C20        12.6885   -0.5122    2.9505 C.3       1 <0>        -0.1227
     24 C21        13.1007   -1.7798    2.2167 C.2       1 <0>         0.5235
     25 O1         14.1655   -2.3154    2.4393 O.2       1 <0>        -0.4827
     26 N3         12.2377   -2.2892    1.3132 N.am      1 <0>        -0.6943
     27 H1         -0.9604    1.9041    0.0260 H         1 <0>         0.1297
     28 H2          1.1469    3.1729    0.0082 H         1 <0>         0.1300
     29 H3          3.3018    1.9870   -0.0200 H         1 <0>         0.1238
     30 H4          1.2178   -1.7605   -0.0194 H         1 <0>         0.1242
     31 H5         -0.9265   -0.5556    0.0079 H         1 <0>         0.1302
     32 H6          4.1807    0.0380    1.8312 H         1 <0>         0.1507
     33 H7          6.5585   -0.5912    1.5147 H         1 <0>         0.1421
     34 H8          5.7318   -2.1497    1.7228 H         1 <0>         0.1384
     35 H9          5.5771   -2.9272   -1.8035 H         1 <0>         0.1379
     36 H10         4.8408   -3.2312   -0.2083 H         1 <0>         0.1329
     37 H11         3.1757   -2.0990   -1.5459 H         1 <0>         0.1250
     38 H12         4.3502   -0.8642   -2.0585 H         1 <0>         0.1072
     39 H13         7.2735   -3.3533    0.5384 H         1 <0>         0.1321
     40 H14         7.7527   -2.8970   -1.1140 H         1 <0>         0.1342
     41 H15         8.8208   -0.8386   -0.2358 H         1 <0>         0.0998
     42 H16         8.3416   -1.2949    1.4166 H         1 <0>         0.0982
     43 H17         9.6748   -3.3772    1.2282 H         1 <0>         0.1060
     44 H18        10.1540   -2.9209   -0.4242 H         1 <0>         0.1051
     45 H19        12.5621    0.5551    1.1298 H         1 <0>         0.0825
     46 H20        12.2934    2.1887    2.9172 H         1 <0>         0.0902
     47 H21        10.9974    2.2472    1.7055 H         1 <0>         0.0876
     48 H22        10.0670    2.4451    3.9834 H         1 <0>         0.1107
     49 H23         9.5352    0.9206    3.2269 H         1 <0>         0.0888
     50 H24        12.3838   -1.5403    4.8238 H         1 <0>         0.1162
     51 H25        10.9647   -1.5369    3.7488 H         1 <0>         0.0831
     52 H26        13.5582    0.0385    3.3090 H         1 <0>         0.1367
     53 H27        12.4917   -3.0695    0.7960 H         1 <0>         0.4147
     54 H28         6.4742   -0.8691   -0.8071 H         1 <0>         0.4267
@<TRIPOS>BOND
     1    1    6 ar
     2    1    2 ar
     3    1   27 1
     4    2    3 ar
     5    2   28 1
     6    3    4 ar
     7    3   29 1
     8    4    5 ar
     9    4    7 1
    10    5    6 ar
    11    5   30 1
    12    6   31 1
    13    7   12 1
    14    7    8 2
    15    8    9 1
    16    8   32 1
    17    9   10 1
    18    9   33 1
    19    9   34 1
    20   10   11 1
    21   10   13 1
    22   10   54 1
    23   11   12 1
    24   11   35 1
    25   11   36 1
    26   12   37 1
    27   12   38 1
    28   13   14 1
    29   13   39 1
    30   13   40 1
    31   14   15 1
    32   14   41 1
    33   14   42 1
    34   15   16 1
    35   15   43 1
    36   15   44 1
    37   16   26 1
    38   16   17 2
    39   17   18 1
    40   18   23 1
    41   18   19 1
    42   18   45 1
    43   19   20 1
    44   19   46 1
    45   19   47 1
    46   20   21 1
    47   20   48 1
    48   20   49 1
    49   21   22 1
    50   22   23 1
    51   22   50 1
    52   22   51 1
    53   23   24 1
    54   23   52 1
    55   24   25 2
    56   24   26 am
    57   26   53 1
@<TRIPOS>MOLECULE
CHEMBL193679
   59    62     0     0     0
SMALL
USER_CHARGES

@<TRIPOS>ATOM
      1 C1         -0.0167    1.3792    0.0096 C.ar      1 <0>        -0.1029
      2 C2          1.1683    2.0931    0.0021 C.ar      1 <0>        -0.1154
      3 C3          2.3774    1.4286   -0.0134 C.ar      1 <0>        -0.1019
      4 C4          2.4032    0.0335   -0.0212 C.ar      1 <0>        -0.0834
      5 C5          1.2045   -0.6806   -0.0131 C.ar      1 <0>        -0.1012
      6 C6          0.0021   -0.0041    0.0020 C.ar      1 <0>        -0.1151
      7 C7          3.6950   -0.6848   -0.0384 C.2       1 <0>        -0.0464
      8 C8          4.4943   -0.5772    1.0009 C.2       1 <0>        -0.1879
      9 C9          5.8233   -1.2710    1.0843 C.3       1 <0>         0.0339
     10 N1          6.2689   -1.6856   -0.2511 N.4       1 <0>        -0.3850
     11 C10         5.1971   -2.4623   -0.8938 C.3       1 <0>        -0.0033
     12 C11         4.0456   -1.5174   -1.2408 C.3       1 <0>        -0.1136
     13 C12         7.4741   -2.5169   -0.1311 C.3       1 <0>        -0.0128
     14 C13         8.6201   -1.6750    0.4337 C.3       1 <0>        -0.1308
     15 C14         9.8754   -2.5408    0.5587 C.3       1 <0>        -0.0679
     16 C15        11.0042   -1.7116    1.1150 C.2       1 <0>         0.3798
     17 N2         10.7895   -0.4804    1.3984 N.2       1 <0>        -0.5528
     18 C16        11.8187    0.4024    1.9480 C.3       1 <0>         0.0920
     19 C17        11.4365    1.8512    1.6151 C.3       1 <0>        -0.0898
     20 C18        12.5609    2.8258    1.8622 C.3       1 <0>        -0.1240
     21 C19        13.3777    3.0079    0.5626 C.3       1 <0>        -0.1202
     22 C20        14.2741    1.8861    0.3227 C.3       1 <0>        -0.1190
     23 C21        13.5352    0.5526    0.1113 C.3       1 <0>        -0.0989
     24 C22        13.2012   -0.0322    1.4574 C.3       1 <0>        -0.1299
     25 C23        13.3244   -1.5274    1.4714 C.2       1 <0>         0.5253
     26 O1         14.4094   -2.0434    1.6348 O.2       1 <0>        -0.4956
     27 N3         12.2302   -2.2999    1.3081 N.am      1 <0>        -0.6930
     28 H1         -0.9604    1.9041    0.0260 H         1 <0>         0.1296
     29 H2          1.1469    3.1729    0.0082 H         1 <0>         0.1299
     30 H3          3.3018    1.9870   -0.0200 H         1 <0>         0.1240
     31 H4          1.2178   -1.7605   -0.0194 H         1 <0>         0.1241
     32 H5         -0.9265   -0.5556    0.0079 H         1 <0>         0.1301
     33 H6          4.1807    0.0380    1.8312 H         1 <0>         0.1503
     34 H7          6.5585   -0.5912    1.5147 H         1 <0>         0.1431
     35 H8          5.7318   -2.1497    1.7228 H         1 <0>         0.1382
     36 H9          5.5771   -2.9272   -1.8035 H         1 <0>         0.1377
     37 H10         4.8408   -3.2312   -0.2083 H         1 <0>         0.1326
     38 H11         3.1757   -2.0990   -1.5459 H         1 <0>         0.1247
     39 H12         4.3502   -0.8642   -2.0585 H         1 <0>         0.1070
     40 H13         7.2735   -3.3533    0.5384 H         1 <0>         0.1316
     41 H14         7.7527   -2.8970   -1.1140 H         1 <0>         0.1333
     42 H15         8.8208   -0.8386   -0.2358 H         1 <0>         0.0987
     43 H16         8.3416   -1.2949    1.4166 H         1 <0>         0.0990
     44 H17         9.6748   -3.3772    1.2282 H         1 <0>         0.1022
     45 H18        10.1540   -2.9209   -0.4242 H         1 <0>         0.1034
     46 H19        11.7999    0.3028    3.0333 H         1 <0>         0.0800
     47 H20        11.1483    1.9062    0.5653 H         1 <0>         0.0690
     48 H21        10.5816    2.1386    2.2272 H         1 <0>         0.0701
     49 H22        12.1482    3.7866    2.1698 H         1 <0>         0.0724
     50 H23        13.2099    2.4402    2.6485 H         1 <0>         0.0655
     51 H24        12.6905    3.0990   -0.2785 H         1 <0>         0.0621
     52 H25        13.9662    3.9222    0.6387 H         1 <0>         0.0681
     53 H26        14.8720    2.0992   -0.5634 H         1 <0>         0.0690
     54 H27        14.9433    1.7839    1.1770 H         1 <0>         0.0661
     55 H28        12.6169    0.7281   -0.4491 H         1 <0>         0.0739
     56 H29        14.1756   -0.1373   -0.4383 H         1 <0>         0.0703
     57 H30        13.9342    0.3468    2.1695 H         1 <0>         0.1133
     58 H31        12.3088   -3.2666    1.3233 H         1 <0>         0.4138
     59 H32         6.4742   -0.8691   -0.8071 H         1 <0>         0.4267
@<TRIPOS>BOND
     1    1    6 ar
     2    1    2 ar
     3    1   28 1
     4    2    3 ar
     5    2   29 1
     6    3    4 ar
     7    3   30 1
     8    4    5 ar
     9    4    7 1
    10    5    6 ar
    11    5   31 1
    12    6   32 1
    13    7   12 1
    14    7    8 2
    15    8    9 1
    16    8   33 1
    17    9   10 1
    18    9   34 1
    19    9   35 1
    20   10   11 1
    21   10   13 1
    22   10   59 1
    23   11   12 1
    24   11   36 1
    25   11   37 1
    26   12   38 1
    27   12   39 1
    28   13   14 1
    29   13   40 1
    30   13   41 1
    31   14   15 1
    32   14   42 1
    33   14   43 1
    34   15   16 1
    35   15   44 1
    36   15   45 1
    37   16   27 1
    38   16   17 2
    39   17   18 1
    40   18   24 1
    41   18   19 1
    42   18   46 1
    43   19   20 1
    44   19   47 1
    45   19   48 1
    46   20   21 1
    47   20   49 1
    48   20   50 1
    49   21   22 1
    50   21   51 1
    51   21   52 1
    52   22   23 1
    53   22   53 1
    54   22   54 1
    55   23   24 1
    56   23   55 1
    57   23   56 1
    58   24   25 1
    59   24   57 1
    60   25   26 2
    61   25   27 am
    62   27   58 1
@<TRIPOS>MOLECULE
CHEMBL193679__1
   59    62     0     0     0
SMALL
USER_CHARGES

@<TRIPOS>ATOM
      1 C1         -0.0167    1.3792    0.0096 C.ar      1 <0>        -0.1029
      2 C2          1.1683    2.0931    0.0021 C.ar      1 <0>        -0.1154
      3 C3          2.3774    1.4286   -0.0134 C.ar      1 <0>        -0.1019
      4 C4          2.4032    0.0335   -0.0212 C.ar      1 <0>        -0.0834
      5 C5          1.2045   -0.6806   -0.0131 C.ar      1 <0>        -0.1012
      6 C6          0.0021   -0.0041    0.0020 C.ar      1 <0>        -0.1151
      7 C7          3.6950   -0.6848   -0.0384 C.2       1 <0>        -0.0465
      8 C8          4.4943   -0.5772    1.0009 C.2       1 <0>        -0.1879
      9 C9          5.8233   -1.2710    1.0843 C.3       1 <0>         0.0338
     10 N1          6.2689   -1.6856   -0.2511 N.4       1 <0>        -0.3851
     11 C10         5.1971   -2.4623   -0.8938 C.3       1 <0>        -0.0033
     12 C11         4.0456   -1.5174   -1.2408 C.3       1 <0>        -0.1137
     13 C12         7.4741   -2.5169   -0.1311 C.3       1 <0>        -0.0127
     14 C13         8.6201   -1.6750    0.4337 C.3       1 <0>        -0.1308
     15 C14         9.8754   -2.5408    0.5587 C.3       1 <0>        -0.0679
     16 C15        11.0042   -1.7116    1.1150 C.2       1 <0>         0.3829
     17 N2         10.7897   -0.4853    1.3971 N.2       1 <0>        -0.5594
     18 C16        11.7838    0.4222    1.9641 C.3       1 <0>         0.1000
     19 C17        11.5239    1.8141    1.4284 C.3       1 <0>        -0.0899
     20 C18        12.6223    2.8247    1.6041 C.3       1 <0>        -0.1179
     21 C19        13.4133    2.7527    2.8620 C.3       1 <0>        -0.1220
     22 C20        14.5746    1.7750    2.8090 C.3       1 <0>        -0.1180
     23 C21        14.0950    0.3653    2.9795 C.3       1 <0>        -0.1076
     24 C22        13.1829   -0.0657    1.8397 C.3       1 <0>        -0.1213
     25 C23        13.2780   -1.5627    1.7017 C.2       1 <0>         0.5197
     26 O1         14.3264   -2.1155    1.9574 O.2       1 <0>        -0.4966
     27 N3         12.2283   -2.2998    1.3076 N.am      1 <0>        -0.6891
     28 H1         -0.9604    1.9041    0.0260 H         1 <0>         0.1296
     29 H2          1.1469    3.1729    0.0082 H         1 <0>         0.1299
     30 H3          3.3018    1.9870   -0.0200 H         1 <0>         0.1240
     31 H4          1.2178   -1.7605   -0.0194 H         1 <0>         0.1242
     32 H5         -0.9265   -0.5556    0.0079 H         1 <0>         0.1301
     33 H6          4.1807    0.0380    1.8312 H         1 <0>         0.1504
     34 H7          6.5585   -0.5912    1.5147 H         1 <0>         0.1431
     35 H8          5.7318   -2.1497    1.7228 H         1 <0>         0.1383
     36 H9          5.5771   -2.9272   -1.8035 H         1 <0>         0.1377
     37 H10         4.8408   -3.2312   -0.2083 H         1 <0>         0.1327
     38 H11         3.1757   -2.0990   -1.5459 H         1 <0>         0.1247
     39 H12         4.3502   -0.8642   -2.0585 H         1 <0>         0.1070
     40 H13         7.2735   -3.3533    0.5384 H         1 <0>         0.1318
     41 H14         7.7527   -2.8970   -1.1140 H         1 <0>         0.1335
     42 H15         8.8208   -0.8386   -0.2358 H         1 <0>         0.0988
     43 H16         8.3416   -1.2949    1.4166 H         1 <0>         0.0990
     44 H17         9.6748   -3.3772    1.2282 H         1 <0>         0.1033
     45 H18        10.1540   -2.9209   -0.4242 H         1 <0>         0.1037
     46 H19        11.5704    0.4753    3.0317 H         1 <0>         0.0802
     47 H20        11.3114    1.7301    0.3626 H         1 <0>         0.0632
     48 H21        10.6295    2.2010    1.9167 H         1 <0>         0.0687
     49 H22        13.3126    2.7191    0.7672 H         1 <0>         0.0576
     50 H23        12.1773    3.8179    1.5440 H         1 <0>         0.0693
     51 H24        13.8054    3.7455    3.0826 H         1 <0>         0.0675
     52 H25        12.7482    2.4577    3.6737 H         1 <0>         0.0606
     53 H26        15.0779    1.8683    1.8467 H         1 <0>         0.0655
     54 H27        15.2795    2.0125    3.6057 H         1 <0>         0.0753
     55 H28        14.9570   -0.3008    3.0154 H         1 <0>         0.0895
     56 H29        13.5490    0.2875    3.9197 H         1 <0>         0.0665
     57 H30        13.5927    0.3585    0.9231 H         1 <0>         0.1069
     58 H31        12.3363   -3.2515    1.1546 H         1 <0>         0.4140
     59 H32         6.4742   -0.8691   -0.8071 H         1 <0>         0.4266
@<TRIPOS>BOND
     1    1    6 ar
     2    1    2 ar
     3    1   28 1
     4    2    3 ar
     5    2   29 1
     6    3    4 ar
     7    3   30 1
     8    4    5 ar
     9    4    7 1
    10    5    6 ar
    11    5   31 1
    12    6   32 1
    13    7   12 1
    14    7    8 2
    15    8    9 1
    16    8   33 1
    17    9   10 1
    18    9   34 1
    19    9   35 1
    20   10   11 1
    21   10   13 1
    22   10   59 1
    23   11   12 1
    24   11   36 1
    25   11   37 1
    26   12   38 1
    27   12   39 1
    28   13   14 1
    29   13   40 1
    30   13   41 1
    31   14   15 1
    32   14   42 1
    33   14   43 1
    34   15   16 1
    35   15   44 1
    36   15   45 1
    37   16   27 1
    38   16   17 2
    39   17   18 1
    40   18   24 1
    41   18   19 1
    42   18   46 1
    43   19   20 1
    44   19   47 1
    45   19   48 1
    46   20   21 1
    47   20   49 1
    48   20   50 1
    49   21   22 1
    50   21   51 1
    51   21   52 1
    52   22   23 1
    53   22   53 1
    54   22   54 1
    55   23   24 1
    56   23   55 1
    57   23   56 1
    58   24   25 1
    59   24   57 1
    60   25   26 2
    61   25   27 am
    62   27   58 1
@<TRIPOS>MOLECULE
CHEMBL193679__2
   59    62     0     0     0
SMALL
USER_CHARGES

@<TRIPOS>ATOM
      1 C1         -0.0167    1.3792    0.0096 C.ar      1 <0>        -0.1029
      2 C2          1.1683    2.0931    0.0021 C.ar      1 <0>        -0.1154
      3 C3          2.3774    1.4286   -0.0134 C.ar      1 <0>        -0.1019
      4 C4          2.4032    0.0335   -0.0212 C.ar      1 <0>        -0.0834
      5 C5          1.2045   -0.6806   -0.0131 C.ar      1 <0>        -0.1012
      6 C6          0.0021   -0.0041    0.0020 C.ar      1 <0>        -0.1151
      7 C7          3.6950   -0.6848   -0.0384 C.2       1 <0>        -0.0463
      8 C8          4.4943   -0.5772    1.0009 C.2       1 <0>        -0.1880
      9 C9          5.8233   -1.2710    1.0843 C.3       1 <0>         0.0338
     10 N1          6.2689   -1.6856   -0.2511 N.4       1 <0>        -0.3852
     11 C10         5.1971   -2.4623   -0.8938 C.3       1 <0>        -0.0033
     12 C11         4.0456   -1.5174   -1.2408 C.3       1 <0>        -0.1137
     13 C12         7.4741   -2.5169   -0.1311 C.3       1 <0>        -0.0127
     14 C13         8.6201   -1.6750    0.4337 C.3       1 <0>        -0.1308
     15 C14         9.8754   -2.5408    0.5587 C.3       1 <0>        -0.0678
     16 C15        11.0042   -1.7116    1.1150 C.2       1 <0>         0.3831
     17 N2         10.7898   -0.4853    1.3971 N.2       1 <0>        -0.5594
     18 C16        11.7972    0.4353    1.9175 C.3       1 <0>         0.0998
     19 C17        11.1162    1.4165    2.8477 C.3       1 <0>        -0.0897
     20 C18        12.0053    2.2233    3.7518 C.3       1 <0>        -0.1178
     21 C19        13.3162    2.6584    3.1992 C.3       1 <0>        -0.1221
     22 C20        14.4217    1.6264    3.3404 C.3       1 <0>        -0.1179
     23 C21        14.2902    0.5558    2.2997 C.3       1 <0>        -0.1079
     24 C22        13.0036   -0.2407    2.4641 C.3       1 <0>        -0.1214
     25 C23        13.2245   -1.6149    1.8880 C.2       1 <0>         0.5198
     26 O1         14.3270   -2.1150    1.9553 O.2       1 <0>        -0.4967
     27 N3         12.2284   -2.2997    1.3076 N.am      1 <0>        -0.6890
     28 H1         -0.9604    1.9041    0.0260 H         1 <0>         0.1296
     29 H2          1.1469    3.1729    0.0082 H         1 <0>         0.1299
     30 H3          3.3018    1.9870   -0.0200 H         1 <0>         0.1240
     31 H4          1.2178   -1.7605   -0.0194 H         1 <0>         0.1242
     32 H5         -0.9265   -0.5556    0.0079 H         1 <0>         0.1301
     33 H6          4.1807    0.0380    1.8312 H         1 <0>         0.1504
     34 H7          6.5585   -0.5912    1.5147 H         1 <0>         0.1430
     35 H8          5.7318   -2.1497    1.7228 H         1 <0>         0.1382
     36 H9          5.5771   -2.9272   -1.8035 H         1 <0>         0.1377
     37 H10         4.8408   -3.2312   -0.2083 H         1 <0>         0.1326
     38 H11         3.1757   -2.0990   -1.5459 H         1 <0>         0.1247
     39 H12         4.3502   -0.8642   -2.0585 H         1 <0>         0.1071
     40 H13         7.2735   -3.3533    0.5384 H         1 <0>         0.1317
     41 H14         7.7527   -2.8970   -1.1140 H         1 <0>         0.1336
     42 H15         8.8208   -0.8386   -0.2358 H         1 <0>         0.0989
     43 H16         8.3416   -1.2949    1.4166 H         1 <0>         0.0989
     44 H17         9.6748   -3.3772    1.2282 H         1 <0>         0.1036
     45 H18        10.1540   -2.9209   -0.4242 H         1 <0>         0.1034
     46 H19        12.1352    1.0261    1.0662 H         1 <0>         0.0802
     47 H20        10.5368    2.1105    2.2388 H         1 <0>         0.0687
     48 H21        10.4183    0.8589    3.4723 H         1 <0>         0.0630
     49 H22        11.4561    3.1149    4.0542 H         1 <0>         0.0693
     50 H23        12.1981    1.6325    4.6473 H         1 <0>         0.0576
     51 H24        13.1881    2.8870    2.1411 H         1 <0>         0.0607
     52 H25        13.6241    3.5692    3.7127 H         1 <0>         0.0676
     53 H26        15.3878    2.1186    3.2280 H         1 <0>         0.0753
     54 H27        14.3644    1.1731    4.3300 H         1 <0>         0.0655
     55 H28        14.2977    1.0178    1.3124 H         1 <0>         0.0665
     56 H29        15.1399   -0.1223    2.3789 H         1 <0>         0.0895
     57 H30        12.8430   -0.3732    3.5341 H         1 <0>         0.1070
     58 H31        12.3756   -3.2141    1.0192 H         1 <0>         0.4139
     59 H32         6.4742   -0.8691   -0.8071 H         1 <0>         0.4267
@<TRIPOS>BOND
     1    1    6 ar
     2    1    2 ar
     3    1   28 1
     4    2    3 ar
     5    2   29 1
     6    3    4 ar
     7    3   30 1
     8    4    5 ar
     9    4    7 1
    10    5    6 ar
    11    5   31 1
    12    6   32 1
    13    7   12 1
    14    7    8 2
    15    8    9 1
    16    8   33 1
    17    9   10 1
    18    9   34 1
    19    9   35 1
    20   10   11 1
    21   10   13 1
    22   10   59 1
    23   11   12 1
    24   11   36 1
    25   11   37 1
    26   12   38 1
    27   12   39 1
    28   13   14 1
    29   13   40 1
    30   13   41 1
    31   14   15 1
    32   14   42 1
    33   14   43 1
    34   15   16 1
    35   15   44 1
    36   15   45 1
    37   16   27 1
    38   16   17 2
    39   17   18 1
    40   18   24 1
    41   18   19 1
    42   18   46 1
    43   19   20 1
    44   19   47 1
    45   19   48 1
    46   20   21 1
    47   20   49 1
    48   20   50 1
    49   21   22 1
    50   21   51 1
    51   21   52 1
    52   22   23 1
    53   22   53 1
    54   22   54 1
    55   23   24 1
    56   23   55 1
    57   23   56 1
    58   24   25 1
    59   24   57 1
    60   25   26 2
    61   25   27 am
    62   27   58 1
@<TRIPOS>MOLECULE
CHEMBL193679__3
   59    62     0     0     0
SMALL
USER_CHARGES

@<TRIPOS>ATOM
      1 C1         -0.0167    1.3792    0.0096 C.ar      1 <0>        -0.1029
      2 C2          1.1683    2.0931    0.0021 C.ar      1 <0>        -0.1154
      3 C3          2.3774    1.4286   -0.0134 C.ar      1 <0>        -0.1019
      4 C4          2.4032    0.0335   -0.0212 C.ar      1 <0>        -0.0834
      5 C5          1.2045   -0.6806   -0.0131 C.ar      1 <0>        -0.1012
      6 C6          0.0021   -0.0041    0.0020 C.ar      1 <0>        -0.1151
      7 C7          3.6950   -0.6848   -0.0384 C.2       1 <0>        -0.0464
      8 C8          4.4943   -0.5772    1.0009 C.2       1 <0>        -0.1879
      9 C9          5.8233   -1.2710    1.0843 C.3       1 <0>         0.0339
     10 N1          6.2689   -1.6856   -0.2511 N.4       1 <0>        -0.3851
     11 C10         5.1971   -2.4623   -0.8938 C.3       1 <0>        -0.0033
     12 C11         4.0456   -1.5174   -1.2408 C.3       1 <0>        -0.1137
     13 C12         7.4741   -2.5169   -0.1311 C.3       1 <0>        -0.0128
     14 C13         8.6201   -1.6750    0.4337 C.3       1 <0>        -0.1308
     15 C14         9.8754   -2.5408    0.5587 C.3       1 <0>        -0.0678
     16 C15        11.0042   -1.7116    1.1150 C.2       1 <0>         0.3799
     17 N2         10.7895   -0.4804    1.3984 N.2       1 <0>        -0.5527
     18 C16        11.8221    0.4057    1.9361 C.3       1 <0>         0.0919
     19 C17        11.1287    1.5508    2.6872 C.3       1 <0>        -0.0896
     20 C18        12.0806    2.3570    3.5350 C.3       1 <0>        -0.1241
     21 C19        12.1137    1.7739    4.9662 C.3       1 <0>        -0.1200
     22 C20        12.9197    0.5639    5.0413 C.3       1 <0>        -0.1191
     23 C21        12.3660   -0.5889    4.1850 C.3       1 <0>        -0.0985
     24 C22        12.8261   -0.3985    2.7646 C.3       1 <0>        -0.1305
     25 C23        13.1459   -1.7017    2.0936 C.2       1 <0>         0.5253
     26 O1         14.2291   -2.2195    2.2632 O.2       1 <0>        -0.4962
     27 N3         12.2303   -2.3000    1.3081 N.am      1 <0>        -0.6920
     28 H1         -0.9604    1.9041    0.0260 H         1 <0>         0.1296
     29 H2          1.1469    3.1729    0.0082 H         1 <0>         0.1299
     30 H3          3.3018    1.9870   -0.0200 H         1 <0>         0.1240
     31 H4          1.2178   -1.7605   -0.0194 H         1 <0>         0.1241
     32 H5         -0.9265   -0.5556    0.0079 H         1 <0>         0.1301
     33 H6          4.1807    0.0380    1.8312 H         1 <0>         0.1504
     34 H7          6.5585   -0.5912    1.5147 H         1 <0>         0.1430
     35 H8          5.7318   -2.1497    1.7228 H         1 <0>         0.1381
     36 H9          5.5771   -2.9272   -1.8035 H         1 <0>         0.1377
     37 H10         4.8408   -3.2312   -0.2083 H         1 <0>         0.1326
     38 H11         3.1757   -2.0990   -1.5459 H         1 <0>         0.1247
     39 H12         4.3502   -0.8642   -2.0585 H         1 <0>         0.1071
     40 H13         7.2735   -3.3533    0.5384 H         1 <0>         0.1316
     41 H14         7.7527   -2.8970   -1.1140 H         1 <0>         0.1335
     42 H15         8.8208   -0.8386   -0.2358 H         1 <0>         0.0989
     43 H16         8.3416   -1.2949    1.4166 H         1 <0>         0.0989
     44 H17         9.6748   -3.3772    1.2282 H         1 <0>         0.1034
     45 H18        10.1540   -2.9209   -0.4242 H         1 <0>         0.1024
     46 H19        12.3564    0.8460    1.0942 H         1 <0>         0.0801
     47 H20        10.6580    2.2133    1.9608 H         1 <0>         0.0702
     48 H21        10.3547    1.1315    3.3301 H         1 <0>         0.0688
     49 H22        13.0797    2.3132    3.1014 H         1 <0>         0.0656
     50 H23        11.7455    3.3935    3.5724 H         1 <0>         0.0724
     51 H24        12.5295    2.5198    5.6436 H         1 <0>         0.0681
     52 H25        11.0954    1.5419    5.2784 H         1 <0>         0.0620
     53 H26        13.9305    0.7953    4.7054 H         1 <0>         0.0661
     54 H27        12.9650    0.2376    6.0804 H         1 <0>         0.0690
     55 H28        12.7393   -1.5394    4.5660 H         1 <0>         0.0703
     56 H29        11.2766   -0.5804    4.2208 H         1 <0>         0.0737
     57 H30        13.7547    0.1714    2.7952 H         1 <0>         0.1130
     58 H31        12.4384   -3.1435    0.8767 H         1 <0>         0.4136
     59 H32         6.4742   -0.8691   -0.8071 H         1 <0>         0.4267
@<TRIPOS>BOND
     1    1    6 ar
     2    1    2 ar
     3    1   28 1
     4    2    3 ar
     5    2   29 1
     6    3    4 ar
     7    3   30 1
     8    4    5 ar
     9    4    7 1
    10    5    6 ar
    11    5   31 1
    12    6   32 1
    13    7   12 1
    14    7    8 2
    15    8    9 1
    16    8   33 1
    17    9   10 1
    18    9   34 1
    19    9   35 1
    20   10   11 1
    21   10   13 1
    22   10   59 1
    23   11   12 1
    24   11   36 1
    25   11   37 1
    26   12   38 1
    27   12   39 1
    28   13   14 1
    29   13   40 1
    30   13   41 1
    31   14   15 1
    32   14   42 1
    33   14   43 1
    34   15   16 1
    35   15   44 1
    36   15   45 1
    37   16   27 1
    38   16   17 2
    39   17   18 1
    40   18   24 1
    41   18   19 1
    42   18   46 1
    43   19   20 1
    44   19   47 1
    45   19   48 1
    46   20   21 1
    47   20   49 1
    48   20   50 1
    49   21   22 1
    50   21   51 1
    51   21   52 1
    52   22   23 1
    53   22   53 1
    54   22   54 1
    55   23   24 1
    56   23   55 1
    57   23   56 1
    58   24   25 1
    59   24   57 1
    60   25   26 2
    61   25   27 am
    62   27   58 1
@<TRIPOS>MOLECULE
CHEMBL607844
   30    33     0     0     0
SMALL
USER_CHARGES

@<TRIPOS>ATOM
      1 C1         -0.0184    1.5028    0.0103 C.3       1 <0>        -0.1143
      2 C2          0.0021   -0.0041    0.0020 C.2       1 <0>        -0.0644
      3 C3          0.0058   -0.7027   -1.2181 C.2       1 <0>        -0.1243
      4 C4          0.0241   -2.0508   -1.2306 C.2       1 <0>         0.0490
      5 N1          0.0387   -2.7583   -0.0600 N.pl3     1 <0>        -0.3717
      6 C5          0.0354   -2.1035    1.1484 C.2       1 <0>         0.2504
      7 C6          0.0225   -0.6921    1.1740 C.2       1 <0>        -0.0789
      8 N2          0.0517   -3.0028    2.1190 N.2       1 <0>        -0.4499
      9 C7          0.0656   -4.2355    1.5818 C.2       1 <0>         0.0605
     10 C8          0.0576   -4.1031    0.2025 C.2       1 <0>         0.1892
     11 N3          0.0689   -5.2056   -0.6229 N.am      1 <0>        -0.6122
     12 H1          0.0628   -5.0710   -1.5835 H         1 <0>         0.4090
     13 C9          0.0885   -6.4630   -0.1438 C.2       1 <0>         0.5722
     14 O1          0.0983   -7.4072   -0.9130 O.2       1 <0>        -0.5156
     15 C10         0.0986   -6.6974    1.3051 C.ar      1 <0>        -0.1407
     16 C11         0.0853   -5.5835    2.1727 C.ar      1 <0>         0.0373
     17 C12         0.0937   -5.7800    3.5512 C.ar      1 <0>        -0.1029
     18 C13         0.1119   -7.0623    4.0563 C.ar      1 <0>        -0.0815
     19 C14         0.1224   -8.1584    3.2045 C.ar      1 <0>        -0.1272
     20 C15         0.1193   -7.9866    1.8377 C.ar      1 <0>        -0.0465
     21 H2          1.0042    1.8801    0.0026 H         1 <0>         0.0797
     22 H3         -0.5455    1.8639   -0.8728 H         1 <0>         0.0741
     23 H4         -0.5286    1.8543    0.9071 H         1 <0>         0.0753
     24 H5         -0.0063   -0.1568   -2.1499 H         1 <0>         0.1565
     25 H6          0.0268   -2.5770   -2.1738 H         1 <0>         0.1636
     26 H7          0.0247   -0.1641    2.1161 H         1 <0>         0.1585
     27 H8          0.0863   -4.9326    4.2207 H         1 <0>         0.1412
     28 H9          0.1184   -7.2159    5.1253 H         1 <0>         0.1350
     29 H10         0.1373   -9.1561    3.6177 H         1 <0>         0.1357
     30 H11         0.1283   -8.8450    1.1823 H         1 <0>         0.1430
@<TRIPOS>BOND
     1    1    2 1
     2    1   21 1
     3    1   22 1
     4    1   23 1
     5    2    7 2
     6    2    3 1
     7    3    4 2
     8    3   24 1
     9    4    5 1
    10    4   25 1
    11    5   10 1
    12    5    6 1
    13    6    7 1
    14    6    8 2
    15    7   26 1
    16    8    9 1
    17    9   16 1
    18    9   10 2
    19   10   11 1
    20   11   12 1
    21   11   13 am
    22   13   14 2
    23   13   15 1
    24   15   20 ar
    25   15   16 ar
    26   16   17 ar
    27   17   18 ar
    28   17   27 1
    29   18   19 ar
    30   18   28 1
    31   19   20 ar
    32   19   29 1
    33   20   30 1
@<TRIPOS>MOLECULE
CHEMBL110729
   60    63     0     0     0
SMALL
USER_CHARGES

@<TRIPOS>ATOM
      1 C1         -0.0795    1.2224   -0.6168 C.ar      1 <0>        -0.2917
      2 C2          1.1253    1.8954   -0.7454 C.ar      1 <0>         0.1945
      3 N1          2.2544    1.2065   -0.7279 N.ar      1 <0>        -0.5713
      4 C3          2.2416   -0.1112   -0.5895 C.ar      1 <0>         0.5652
      5 N2          1.1074   -0.7845   -0.4647 N.ar      1 <0>        -0.5716
      6 C4         -0.0565   -0.1561   -0.4738 C.ar      1 <0>         0.1945
      7 N3          3.4416   -0.8006   -0.5753 N.pl3     1 <0>        -0.5860
      8 C5          4.7178   -0.0835   -0.7058 C.3       1 <0>         0.1141
      9 C6          5.6069   -0.4437    0.4909 C.3       1 <0>         0.0978
     10 N4          5.6278   -1.9059    0.6372 N.am      1 <0>        -0.6088
     11 C7          4.3516   -2.6230    0.7676 C.3       1 <0>         0.0883
     12 C8          3.4628   -2.2622   -0.4235 C.3       1 <0>         0.1121
     13 C9          6.7964   -2.5773    0.6510 C.2       1 <0>         0.5132
     14 O1          7.8432   -1.9747    0.5421 O.2       1 <0>        -0.5330
     15 C10         6.8022   -4.0767    0.8017 C.3       1 <0>         0.1001
     16 N5          8.1838   -4.5636    0.7871 N.am      1 <0>        -0.7180
     17 C11         8.4350   -5.8822    0.9083 C.2       1 <0>         0.5267
     18 O2          7.5171   -6.6657    1.0294 O.2       1 <0>        -0.5350
     19 C12         9.8562   -6.3830    0.8933 C.3       1 <0>        -0.1612
     20 C13         9.8621   -7.9054    1.0462 C.3       1 <0>         0.1185
     21 N6         11.2438   -8.3923    1.0317 N.am      1 <0>        -0.5427
     22 C14        11.9171   -8.5315    2.2350 C.2       1 <0>         0.2086
     23 C15        13.1750   -8.9739    2.2159 C.2       1 <0>        -0.2289
     24 C16        13.7694   -9.2886    0.9522 C.2       1 <0>         0.5477
     25 O3         14.9157   -9.6978    0.9122 O.2       1 <0>        -0.5089
     26 N7         13.0798   -9.1389   -0.1880 N.am      1 <0>        -0.6576
     27 H1         13.4912   -9.3541   -1.0397 H         1 <0>         0.4329
     28 C17        11.8104   -8.6924   -0.1419 C.2       1 <0>         0.6974
     29 O4         11.1782   -8.5574   -1.1716 O.2       1 <0>        -0.5358
     30 C18        14.0629   -9.1824    3.4013 C.3       1 <0>        -0.0349
     31 C19        13.4074   -9.9212    4.5303 C.2       1 <0>        -0.1375
     32 C20        12.4323   -9.3562    5.1448 C.2       1 <0>        -0.1628
     33 C21        11.8940   -8.0287    4.7174 C.3       1 <0>        -0.0887
     34 C22        11.1000   -8.1503    3.4413 C.3       1 <0>        -0.0885
     35 H2         -1.0157    1.7608   -0.6235 H         1 <0>         0.1452
     36 H3          1.1421    2.9693   -0.8589 H         1 <0>         0.1681
     37 H4         -0.9777   -0.7103   -0.3709 H         1 <0>         0.1683
     38 H5          5.2116   -0.3808   -1.6309 H         1 <0>         0.0722
     39 H6          4.5345    0.9909   -0.7150 H         1 <0>         0.1133
     40 H7          6.6193   -0.0789    0.3174 H         1 <0>         0.1086
     41 H8          5.2025    0.0088    1.3964 H         1 <0>         0.0758
     42 H9          4.5350   -3.6974    0.7769 H         1 <0>         0.1022
     43 H10         3.8578   -2.3257    1.6928 H         1 <0>         0.0812
     44 H11         2.4508   -2.6263   -0.2463 H         1 <0>         0.1150
     45 H12         3.8652   -2.7182   -1.3280 H         1 <0>         0.0729
     46 H13         6.3310   -4.3488    1.7462 H         1 <0>         0.1029
     47 H14         6.2496   -4.5269   -0.0230 H         1 <0>         0.1028
     48 H15         8.9179   -3.9370    0.6902 H         1 <0>         0.4142
     49 H16        10.3274   -6.1110   -0.0512 H         1 <0>         0.1084
     50 H17        10.4088   -5.9329    1.7179 H         1 <0>         0.1034
     51 H18         9.3910   -8.1774    1.9907 H         1 <0>         0.1105
     52 H19         9.3095   -8.3556    0.2216 H         1 <0>         0.1139
     53 H20        14.9416   -9.7432    3.0829 H         1 <0>         0.0962
     54 H21        14.3894   -8.2087    3.7664 H         1 <0>         0.0844
     55 H22        13.7475  -10.9047    4.8190 H         1 <0>         0.1201
     56 H23        11.9881   -9.8539    5.9941 H         1 <0>         0.1101
     57 H24        11.2496   -7.6342    5.5031 H         1 <0>         0.0861
     58 H25        12.7242   -7.3406    4.5578 H         1 <0>         0.0789
     59 H26        10.6154   -7.1943    3.2428 H         1 <0>         0.0958
     60 H27        10.3253   -8.9032    3.5864 H         1 <0>         0.1007
@<TRIPOS>BOND
     1    1    6 ar
     2    1    2 ar
     3    1   35 1
     4    2    3 ar
     5    2   36 1
     6    3    4 ar
     7    4    5 ar
     8    4    7 1
     9    5    6 ar
    10    6   37 1
    11    7   12 1
    12    7    8 1
    13    8    9 1
    14    8   38 1
    15    8   39 1
    16    9   10 1
    17    9   40 1
    18    9   41 1
    19   10   11 1
    20   10   13 am
    21   11   12 1
    22   11   42 1
    23   11   43 1
    24   12   44 1
    25   12   45 1
    26   13   14 2
    27   13   15 1
    28   15   16 1
    29   15   46 1
    30   15   47 1
    31   16   17 am
    32   16   48 1
    33   17   18 2
    34   17   19 1
    35   19   20 1
    36   19   49 1
    37   19   50 1
    38   20   21 1
    39   20   51 1
    40   20   52 1
    41   21   28 am
    42   21   22 1
    43   22   34 1
    44   22   23 2
    45   23   24 1
    46   23   30 1
    47   24   25 2
    48   24   26 am
    49   26   27 1
    50   26   28 am
    51   28   29 2
    52   30   31 1
    53   30   53 1
    54   30   54 1
    55   31   32 2
    56   31   55 1
    57   32   33 1
    58   32   56 1
    59   33   34 1
    60   33   57 1
    61   33   58 1
    62   34   59 1
    63   34   60 1
@<TRIPOS>MOLECULE
CHEMBL607649
   60    64     0     0     0
SMALL
USER_CHARGES

@<TRIPOS>ATOM
      1 C1          0.1543    1.3726    0.6405 C.ar      1 <0>        -0.1030
      2 C2          1.1690    2.0924    0.0427 C.ar      1 <0>        -0.0611
      3 C3          2.2215    1.4242   -0.5859 C.ar      1 <0>        -0.1366
      4 C4          2.2351    0.0283   -0.6024 C.ar      1 <0>        -0.1239
      5 C5          1.2161   -0.6856   -0.0012 C.ar      1 <0>         0.1688
      6 C6          0.1719   -0.0093    0.6217 C.ar      1 <0>        -0.0989
      7 N1          1.2336   -2.0849   -0.0201 N.am      1 <0>        -0.6715
      8 C7          0.0810   -2.7748    0.0896 C.2       1 <0>         0.5163
      9 O1         -0.9792   -2.1860    0.1036 O.2       1 <0>        -0.5153
     10 C8          0.1097   -4.2779    0.1949 C.3       1 <0>        -0.1243
     11 C9         -1.3209   -4.8086    0.3079 C.3       1 <0>        -0.1266
     12 C10        -1.2922   -6.3116    0.4131 C.2       1 <0>         0.5168
     13 O2         -0.2320   -6.9004    0.3991 O.2       1 <0>        -0.5413
     14 N2         -2.4448   -7.0015    0.5228 N.am      1 <0>        -0.7252
     15 C11        -2.4170   -8.4627    0.6251 C.3       1 <0>         0.1132
     16 C12        -3.8475   -8.9934    0.7381 C.3       1 <0>         0.0843
     17 H1         -4.3594   -8.5030    1.5662 H         1 <0>         0.1134
     18 C13        -3.8233  -10.5199    0.9677 C.3       1 <0>         0.0508
     19 H2         -2.8866  -10.9505    0.6136 H         1 <0>         0.0960
     20 C14        -5.0168  -11.0027    0.0992 C.3       1 <0>         0.0315
     21 H3         -4.8622  -12.0244   -0.2477 H         1 <0>         0.0966
     22 C15        -4.9499   -9.9972   -1.0778 C.3       1 <0>         0.3228
     23 O3         -4.5545   -8.7487   -0.4833 O.3       1 <0>        -0.3581
     24 N3         -6.2653   -9.8647   -1.7089 N.pl3     1 <0>        -0.4622
     25 C16        -7.1971   -8.9073   -1.4381 C.2       1 <0>         0.2845
     26 N4         -8.2495   -9.0880   -2.1819 N.2       1 <0>        -0.4672
     27 C17        -8.0607  -10.1699   -2.9751 C.ar      1 <0>        -0.1041
     28 C18        -6.7831  -10.6780   -2.6850 C.ar      1 <0>         0.3062
     29 N5         -6.3499  -11.7495   -3.3411 N.ar      1 <0>        -0.5639
     30 C19        -7.1030  -12.3279   -4.2527 C.ar      1 <0>         0.3641
     31 N6         -8.3080  -11.8851   -4.5617 N.ar      1 <0>        -0.5921
     32 C20        -8.8290  -10.8250   -3.9523 C.ar      1 <0>         0.5086
     33 N7        -10.0924  -10.3676   -4.2837 N.pl3     1 <0>        -0.8169
     34 O4         -6.2514  -10.8845    0.8090 O.3       1 <0>        -0.5323
     35 O5         -4.0340  -10.8302    2.3465 O.3       1 <0>        -0.5407
     36 C21         3.4829   -0.3781   -1.3454 C.3       1 <0>         0.1461
     37 N8          4.1527    0.8679   -1.7353 N.am      1 <0>        -0.7230
     38 C22         3.4221    1.9069   -1.2954 C.2       1 <0>         0.5622
     39 O6          3.7090    3.0766   -1.4590 O.2       1 <0>        -0.5211
     40 H4         -0.6561    1.8923    1.1299 H         1 <0>         0.1394
     41 H5          1.1486    3.1720    0.0609 H         1 <0>         0.1356
     42 H6         -0.6258   -0.5651    1.0921 H         1 <0>         0.1564
     43 H7          2.0753   -2.5582   -0.1121 H         1 <0>         0.4146
     44 H8          0.5829   -4.6954   -0.6939 H         1 <0>         0.1073
     45 H9          0.6763   -4.5695    1.0792 H         1 <0>         0.1089
     46 H10        -1.7941   -4.3911    1.1966 H         1 <0>         0.1055
     47 H11        -1.8875   -4.5170   -0.5765 H         1 <0>         0.1056
     48 H12        -3.2928   -6.5306    0.5340 H         1 <0>         0.4075
     49 H13        -1.9437   -8.8802   -0.2636 H         1 <0>         0.0772
     50 H14        -1.8504   -8.7543    1.5095 H         1 <0>         0.0894
     51 H15        -4.2092  -10.3200   -1.8095 H         1 <0>         0.1278
     52 H16        -7.0794   -8.1157   -0.7129 H         1 <0>         0.2198
     53 H17        -6.7209  -13.1971   -4.7675 H         1 <0>         0.2050
     54 H18       -10.4572   -9.5861   -3.8398 H         1 <0>         0.4195
     55 H19       -10.6131  -10.8285   -4.9600 H         1 <0>         0.4109
     56 H20        -6.2943  -11.4173    1.6149 H         1 <0>         0.3882
     57 H21        -4.0276  -11.7773    2.5420 H         1 <0>         0.3904
     58 H22         4.1319   -0.9646   -0.6950 H         1 <0>         0.0952
     59 H23         3.2199   -0.9553   -2.2318 H         1 <0>         0.0959
     60 H24         4.9853    0.9313   -2.2290 H         1 <0>         0.4272
@<TRIPOS>BOND
     1    1    6 ar
     2    1    2 ar
     3    1   40 1
     4    2    3 ar
     5    2   41 1
     6    3   38 1
     7    3    4 ar
     8    4    5 ar
     9    4   36 1
    10    5    6 ar
    11    5    7 1
    12    6   42 1
    13    7    8 am
    14    7   43 1
    15    8    9 2
    16    8   10 1
    17   10   11 1
    18   10   44 1
    19   10   45 1
    20   11   12 1
    21   11   46 1
    22   11   47 1
    23   12   13 2
    24   12   14 am
    25   14   15 1
    26   14   48 1
    27   15   16 1
    28   15   49 1
    29   15   50 1
    30   16   17 1
    31   16   23 1
    32   16   18 1
    33   18   19 1
    34   18   20 1
    35   18   35 1
    36   20   21 1
    37   20   22 1
    38   20   34 1
    39   22   23 1
    40   22   24 1
    41   22   51 1
    42   24   28 1
    43   24   25 1
    44   25   26 2
    45   25   52 1
    46   26   27 1
    47   27   32 ar
    48   27   28 ar
    49   28   29 ar
    50   29   30 ar
    51   30   31 ar
    52   30   53 1
    53   31   32 ar
    54   32   33 1
    55   33   54 1
    56   33   55 1
    57   34   56 1
    58   35   57 1
    59   36   37 1
    60   36   58 1
    61   36   59 1
    62   37   38 am
    63   37   60 1
    64   38   39 2
@<TRIPOS>MOLECULE
CHEMBL607649__1
   60    64     0     0     0
SMALL
USER_CHARGES

@<TRIPOS>ATOM
      1 C1          0.1543    1.3726    0.6405 C.ar      1 <0>        -0.1030
      2 C2          1.1690    2.0924    0.0427 C.ar      1 <0>        -0.0610
      3 C3          2.2215    1.4242   -0.5859 C.ar      1 <0>        -0.1365
      4 C4          2.2351    0.0283   -0.6024 C.ar      1 <0>        -0.1238
      5 C5          1.2161   -0.6856   -0.0012 C.ar      1 <0>         0.1687
      6 C6          0.1719   -0.0093    0.6217 C.ar      1 <0>        -0.0989
      7 N1          1.2336   -2.0849   -0.0201 N.am      1 <0>        -0.6714
      8 C7          0.0810   -2.7748    0.0896 C.2       1 <0>         0.5162
      9 O1         -0.9792   -2.1860    0.1036 O.2       1 <0>        -0.5154
     10 C8          0.1097   -4.2779    0.1949 C.3       1 <0>        -0.1243
     11 C9         -1.3209   -4.8086    0.3079 C.3       1 <0>        -0.1268
     12 C10        -1.2922   -6.3116    0.4131 C.2       1 <0>         0.5178
     13 O2         -0.2320   -6.9004    0.3991 O.2       1 <0>        -0.5402
     14 N2         -2.4448   -7.0015    0.5228 N.am      1 <0>        -0.7270
     15 C11        -2.4170   -8.4627    0.6251 C.3       1 <0>         0.1249
     16 C12        -3.8475   -8.9934    0.7381 C.3       1 <0>         0.0778
     17 H1         -4.3601   -8.5035    1.5661 H         1 <0>         0.1068
     18 C13        -3.8247  -10.5175    0.9643 C.3       1 <0>         0.0483
     19 H2         -2.8007  -10.8907    0.9453 H         1 <0>         0.0922
     20 C14        -4.6321  -11.0899   -0.2262 C.3       1 <0>         0.0360
     21 H3         -3.9671  -11.4217   -1.0235 H         1 <0>         0.0877
     22 C15        -5.4638   -9.8614   -0.6750 C.3       1 <0>         0.3233
     23 O3         -4.5571   -8.7508   -0.4882 O.3       1 <0>        -0.3560
     24 N3         -5.8466   -9.9843   -2.0837 N.pl3     1 <0>        -0.4715
     25 C16        -5.1796   -9.4577   -3.1496 C.2       1 <0>         0.2615
     26 N4         -5.7974   -9.7604   -4.2543 N.2       1 <0>        -0.4596
     27 C17        -6.8969  -10.4983   -3.9685 C.ar      1 <0>        -0.1110
     28 C18        -6.9387  -10.6554   -2.5727 C.ar      1 <0>         0.3170
     29 N5         -7.9308  -11.3541   -2.0308 N.ar      1 <0>        -0.5473
     30 C19        -8.8618  -11.8955   -2.7879 C.ar      1 <0>         0.3652
     31 N6         -8.8629  -11.7779   -4.1031 N.ar      1 <0>        -0.5913
     32 C20        -7.9160  -11.0903   -4.7335 C.ar      1 <0>         0.5089
     33 N7         -7.9250  -10.9735   -6.1124 N.pl3     1 <0>        -0.8172
     34 O4         -5.4839  -12.1550    0.2005 O.3       1 <0>        -0.5247
     35 O5         -4.4536  -10.8488    2.2039 O.3       1 <0>        -0.5390
     36 C21         3.4829   -0.3781   -1.3454 C.3       1 <0>         0.1461
     37 N8          4.1527    0.8679   -1.7353 N.am      1 <0>        -0.7230
     38 C22         3.4221    1.9069   -1.2954 C.2       1 <0>         0.5622
     39 O6          3.7090    3.0766   -1.4590 O.2       1 <0>        -0.5211
     40 H4         -0.6561    1.8923    1.1299 H         1 <0>         0.1394
     41 H5          1.1486    3.1720    0.0609 H         1 <0>         0.1356
     42 H6         -0.6258   -0.5651    1.0921 H         1 <0>         0.1563
     43 H7          2.0753   -2.5582   -0.1121 H         1 <0>         0.4146
     44 H8          0.5829   -4.6954   -0.6939 H         1 <0>         0.1076
     45 H9          0.6763   -4.5695    1.0792 H         1 <0>         0.1089
     46 H10        -1.7941   -4.3911    1.1966 H         1 <0>         0.1056
     47 H11        -1.8875   -4.5170   -0.5765 H         1 <0>         0.1062
     48 H12        -3.2928   -6.5306    0.5340 H         1 <0>         0.4083
     49 H13        -1.9437   -8.8802   -0.2636 H         1 <0>         0.0814
     50 H14        -1.8504   -8.7543    1.5095 H         1 <0>         0.0918
     51 H15        -6.3458   -9.7442   -0.0453 H         1 <0>         0.1246
     52 H16        -4.2725   -8.8750   -3.0866 H         1 <0>         0.2226
     53 H17        -9.6542  -12.4571   -2.3156 H         1 <0>         0.2057
     54 H18        -7.2222  -10.4784   -6.5618 H         1 <0>         0.4191
     55 H19        -8.6340  -11.3867   -6.6296 H         1 <0>         0.4113
     56 H20        -5.0110  -12.9114    0.5737 H         1 <0>         0.3835
     57 H21        -4.4674  -11.7961    2.3972 H         1 <0>         0.3888
     58 H22         4.1319   -0.9646   -0.6950 H         1 <0>         0.0952
     59 H23         3.2199   -0.9553   -2.2318 H         1 <0>         0.0960
     60 H24         4.9853    0.9313   -2.2290 H         1 <0>         0.4272
@<TRIPOS>BOND
     1    1    6 ar
     2    1    2 ar
     3    1   40 1
     4    2    3 ar
     5    2   41 1
     6    3   38 1
     7    3    4 ar
     8    4    5 ar
     9    4   36 1
    10    5    6 ar
    11    5    7 1
    12    6   42 1
    13    7    8 am
    14    7   43 1
    15    8    9 2
    16    8   10 1
    17   10   11 1
    18   10   44 1
    19   10   45 1
    20   11   12 1
    21   11   46 1
    22   11   47 1
    23   12   13 2
    24   12   14 am
    25   14   15 1
    26   14   48 1
    27   15   16 1
    28   15   49 1
    29   15   50 1
    30   16   17 1
    31   16   23 1
    32   16   18 1
    33   18   19 1
    34   18   20 1
    35   18   35 1
    36   20   21 1
    37   20   22 1
    38   20   34 1
    39   22   23 1
    40   22   24 1
    41   22   51 1
    42   24   28 1
    43   24   25 1
    44   25   26 2
    45   25   52 1
    46   26   27 1
    47   27   32 ar
    48   27   28 ar
    49   28   29 ar
    50   29   30 ar
    51   30   31 ar
    52   30   53 1
    53   31   32 ar
    54   32   33 1
    55   33   54 1
    56   33   55 1
    57   34   56 1
    58   35   57 1
    59   36   37 1
    60   36   58 1
    61   36   59 1
    62   37   38 am
    63   37   60 1
    64   38   39 2
@<TRIPOS>MOLECULE
CHEMBL607648
   63    67     0     0     0
SMALL
USER_CHARGES

@<TRIPOS>ATOM
      1 C1          0.1543    1.3726    0.6405 C.ar      1 <0>        -0.1026
      2 C2          1.1690    2.0924    0.0427 C.ar      1 <0>        -0.0615
      3 C3          2.2215    1.4242   -0.5859 C.ar      1 <0>        -0.1372
      4 C4          2.2351    0.0283   -0.6024 C.ar      1 <0>        -0.1254
      5 C5          1.2161   -0.6856   -0.0012 C.ar      1 <0>         0.1696
      6 C6          0.1719   -0.0093    0.6217 C.ar      1 <0>        -0.0991
      7 N1          1.2336   -2.0849   -0.0201 N.am      1 <0>        -0.6741
      8 C7          0.0810   -2.7748    0.0896 C.2       1 <0>         0.5128
      9 O1         -0.9792   -2.1860    0.1036 O.2       1 <0>        -0.5079
     10 C8          0.1097   -4.2779    0.1949 C.3       1 <0>        -0.1400
     11 C9         -1.3209   -4.8086    0.3079 C.3       1 <0>        -0.0918
     12 C10        -1.2918   -6.3346    0.4147 C.3       1 <0>        -0.1407
     13 C11        -2.7009   -6.8573    0.5260 C.2       1 <0>         0.5128
     14 O2         -3.6362   -6.0853    0.5205 O.2       1 <0>        -0.5333
     15 N2         -2.9216   -8.1826    0.6318 N.am      1 <0>        -0.7285
     16 C12        -4.2914   -8.6908    0.7400 C.3       1 <0>         0.1128
     17 C13        -4.2623  -10.2167    0.8469 C.3       1 <0>         0.0853
     18 H1         -3.7015  -10.6352    0.0111 H         1 <0>         0.1128
     19 C14        -5.7036  -10.7698    0.8397 C.3       1 <0>         0.0504
     20 H2         -6.4136  -10.0065    1.1582 H         1 <0>         0.0962
     21 C15        -5.6214  -11.9177    1.8825 C.3       1 <0>         0.0316
     22 H3         -6.5880  -12.0876    2.3568 H         1 <0>         0.0967
     23 C16        -4.6014  -11.3282    2.8890 C.3       1 <0>         0.3226
     24 O3         -3.6536  -10.6057    2.0838 O.3       1 <0>        -0.3585
     25 N3         -3.9291  -12.4045    3.6210 N.pl3     1 <0>        -0.4619
     26 C17        -2.7262  -12.9641    3.3076 C.2       1 <0>         0.2841
     27 N4         -2.4296  -13.8925    4.1700 N.2       1 <0>        -0.4676
     28 C18        -3.4203  -13.9874    5.0891 C.ar      1 <0>        -0.1042
     29 C19        -4.3919  -13.0301    4.7509 C.ar      1 <0>         0.3065
     30 N5         -5.4772  -12.9156    5.5093 N.ar      1 <0>        -0.5636
     31 C20        -5.6422  -13.6845    6.5650 C.ar      1 <0>         0.3644
     32 N6         -4.7560  -14.5952    6.9240 N.ar      1 <0>        -0.5920
     33 C21        -3.6441  -14.7881    6.2218 C.ar      1 <0>         0.5085
     34 N7         -2.7206  -15.7443    6.6066 N.pl3     1 <0>        -0.8171
     35 O4         -5.1247  -13.1187    1.2884 O.3       1 <0>        -0.5326
     36 O5         -6.0483  -11.2745   -0.4521 O.3       1 <0>        -0.5409
     37 C22         3.4829   -0.3781   -1.3454 C.3       1 <0>         0.1473
     38 N8          4.1527    0.8679   -1.7353 N.am      1 <0>        -0.7234
     39 C23         3.4221    1.9069   -1.2954 C.2       1 <0>         0.5624
     40 O6          3.7090    3.0766   -1.4590 O.2       1 <0>        -0.5212
     41 H4         -0.6561    1.8923    1.1299 H         1 <0>         0.1394
     42 H5          1.1486    3.1720    0.0609 H         1 <0>         0.1355
     43 H6         -0.6258   -0.5651    1.0921 H         1 <0>         0.1564
     44 H7          2.0753   -2.5582   -0.1121 H         1 <0>         0.4126
     45 H8          0.5829   -4.6954   -0.6939 H         1 <0>         0.1001
     46 H9          0.6763   -4.5695    1.0792 H         1 <0>         0.1014
     47 H10        -1.7941   -4.3911    1.1966 H         1 <0>         0.0806
     48 H11        -1.8875   -4.5170   -0.5765 H         1 <0>         0.0808
     49 H12        -0.8186   -6.7521   -0.4740 H         1 <0>         0.0967
     50 H13        -0.7252   -6.6261    1.2991 H         1 <0>         0.0970
     51 H14        -2.1735   -8.8000    0.6363 H         1 <0>         0.4050
     52 H15        -4.7646   -8.2732    1.6287 H         1 <0>         0.0764
     53 H16        -4.8580   -8.3992   -0.1443 H         1 <0>         0.0885
     54 H17        -5.1018  -10.6528    3.5830 H         1 <0>         0.1279
     55 H18        -2.1104  -12.6793    2.4673 H         1 <0>         0.2195
     56 H19        -6.5356  -13.5657    7.1600 H         1 <0>         0.2052
     57 H20        -1.9075  -15.8680    6.0923 H         1 <0>         0.4193
     58 H21        -2.8864  -16.2909    7.3906 H         1 <0>         0.4109
     59 H22        -5.6803  -13.4643    0.5765 H         1 <0>         0.3882
     60 H23        -6.9445  -11.6332   -0.5079 H         1 <0>         0.3904
     61 H24         4.1319   -0.9646   -0.6950 H         1 <0>         0.0944
     62 H25         3.2199   -0.9553   -2.2318 H         1 <0>         0.0952
     63 H26         4.9853    0.9313   -2.2290 H         1 <0>         0.4270
@<TRIPOS>BOND
     1    1    6 ar
     2    1    2 ar
     3    1   41 1
     4    2    3 ar
     5    2   42 1
     6    3   39 1
     7    3    4 ar
     8    4    5 ar
     9    4   37 1
    10    5    6 ar
    11    5    7 1
    12    6   43 1
    13    7    8 am
    14    7   44 1
    15    8    9 2
    16    8   10 1
    17   10   11 1
    18   10   45 1
    19   10   46 1
    20   11   12 1
    21   11   47 1
    22   11   48 1
    23   12   13 1
    24   12   49 1
    25   12   50 1
    26   13   14 2
    27   13   15 am
    28   15   16 1
    29   15   51 1
    30   16   17 1
    31   16   52 1
    32   16   53 1
    33   17   18 1
    34   17   24 1
    35   17   19 1
    36   19   20 1
    37   19   21 1
    38   19   36 1
    39   21   22 1
    40   21   23 1
    41   21   35 1
    42   23   24 1
    43   23   25 1
    44   23   54 1
    45   25   29 1
    46   25   26 1
    47   26   27 2
    48   26   55 1
    49   27   28 1
    50   28   33 ar
    51   28   29 ar
    52   29   30 ar
    53   30   31 ar
    54   31   32 ar
    55   31   56 1
    56   32   33 ar
    57   33   34 1
    58   34   57 1
    59   34   58 1
    60   35   59 1
    61   36   60 1
    62   37   38 1
    63   37   61 1
    64   37   62 1
    65   38   39 am
    66   38   63 1
    67   39   40 2
@<TRIPOS>MOLECULE
CHEMBL607648__1
   63    67     0     0     0
SMALL
USER_CHARGES

@<TRIPOS>ATOM
      1 C1          0.1543    1.3726    0.6405 C.ar      1 <0>        -0.1026
      2 C2          1.1690    2.0924    0.0427 C.ar      1 <0>        -0.0615
      3 C3          2.2215    1.4242   -0.5859 C.ar      1 <0>        -0.1371
      4 C4          2.2351    0.0283   -0.6024 C.ar      1 <0>        -0.1254
      5 C5          1.2161   -0.6856   -0.0012 C.ar      1 <0>         0.1694
      6 C6          0.1719   -0.0093    0.6217 C.ar      1 <0>        -0.0991
      7 N1          1.2336   -2.0849   -0.0201 N.am      1 <0>        -0.6741
      8 C7          0.0810   -2.7748    0.0896 C.2       1 <0>         0.5128
      9 O1         -0.9792   -2.1860    0.1036 O.2       1 <0>        -0.5080
     10 C8          0.1097   -4.2779    0.1949 C.3       1 <0>        -0.1402
     11 C9         -1.3209   -4.8086    0.3079 C.3       1 <0>        -0.0918
     12 C10        -1.2918   -6.3346    0.4147 C.3       1 <0>        -0.1408
     13 C11        -2.7009   -6.8573    0.5260 C.2       1 <0>         0.5138
     14 O2         -3.6362   -6.0853    0.5205 O.2       1 <0>        -0.5321
     15 N2         -2.9216   -8.1826    0.6318 N.am      1 <0>        -0.7302
     16 C12        -4.2914   -8.6908    0.7400 C.3       1 <0>         0.1245
     17 C13        -4.2623  -10.2167    0.8469 C.3       1 <0>         0.0789
     18 H1         -3.7016  -10.6360    0.0114 H         1 <0>         0.1061
     19 C14        -5.7006  -10.7698    0.8428 C.3       1 <0>         0.0479
     20 H2         -6.4230   -9.9540    0.8145 H         1 <0>         0.0924
     21 C15        -5.8123  -11.5463    2.1775 C.3       1 <0>         0.0360
     22 H3         -6.2866  -10.9345    2.9449 H         1 <0>         0.0878
     23 C16        -4.3252  -11.8129    2.5234 C.3       1 <0>         0.3233
     24 O3         -3.6542  -10.6082    2.0891 O.3       1 <0>        -0.3563
     25 N3         -4.1577  -12.0059    3.9660 N.pl3     1 <0>        -0.4715
     26 C17        -3.8134  -11.0485    4.8732 C.2       1 <0>         0.2616
     27 N4         -3.7549  -11.5665    6.0657 N.2       1 <0>        -0.4597
     28 C18        -4.0569  -12.8854    5.9997 C.ar      1 <0>        -0.1112
     29 C19        -4.3244  -13.1821    4.6524 C.ar      1 <0>         0.3170
     30 N5         -4.6554  -14.4250    4.3181 N.ar      1 <0>        -0.5473
     31 C20        -4.7355  -15.3673    5.2338 C.ar      1 <0>         0.3651
     32 N6         -4.4966  -15.1360    6.5117 N.ar      1 <0>        -0.5913
     33 C21        -4.1503  -13.9260    6.9392 C.ar      1 <0>         0.5088
     34 N7         -3.9031  -13.6930    8.2808 N.pl3     1 <0>        -0.8173
     35 O4         -6.5223  -12.7731    1.9958 O.3       1 <0>        -0.5250
     36 O5         -5.8958  -11.6478   -0.2676 O.3       1 <0>        -0.5393
     37 C22         3.4829   -0.3781   -1.3454 C.3       1 <0>         0.1473
     38 N8          4.1527    0.8679   -1.7353 N.am      1 <0>        -0.7234
     39 C23         3.4221    1.9069   -1.2954 C.2       1 <0>         0.5624
     40 O6          3.7090    3.0766   -1.4590 O.2       1 <0>        -0.5211
     41 H4         -0.6561    1.8923    1.1299 H         1 <0>         0.1394
     42 H5          1.1486    3.1720    0.0609 H         1 <0>         0.1355
     43 H6         -0.6258   -0.5651    1.0921 H         1 <0>         0.1564
     44 H7          2.0753   -2.5582   -0.1121 H         1 <0>         0.4126
     45 H8          0.5829   -4.6954   -0.6939 H         1 <0>         0.1000
     46 H9          0.6763   -4.5695    1.0792 H         1 <0>         0.1016
     47 H10        -1.7941   -4.3911    1.1966 H         1 <0>         0.0810
     48 H11        -1.8875   -4.5170   -0.5765 H         1 <0>         0.0808
     49 H12        -0.8186   -6.7521   -0.4740 H         1 <0>         0.0968
     50 H13        -0.7252   -6.6261    1.2991 H         1 <0>         0.0976
     51 H14        -2.1735   -8.8000    0.6363 H         1 <0>         0.4058
     52 H15        -4.7646   -8.2732    1.6287 H         1 <0>         0.0806
     53 H16        -4.8580   -8.3992   -0.1443 H         1 <0>         0.0910
     54 H17        -3.9522  -12.6771    1.9737 H         1 <0>         0.1244
     55 H18        -3.6178  -10.0130    4.6372 H         1 <0>         0.2227
     56 H19        -5.0070  -16.3670    4.9285 H         1 <0>         0.2057
     57 H20        -3.6620  -12.8031    8.5821 H         1 <0>         0.4191
     58 H21        -3.9708  -14.4197    8.9198 H         1 <0>         0.4113
     59 H22        -7.4330  -12.6591    1.6913 H         1 <0>         0.3837
     60 H23        -6.7846  -12.0251   -0.3192 H         1 <0>         0.3887
     61 H24         4.1319   -0.9646   -0.6950 H         1 <0>         0.0944
     62 H25         3.2199   -0.9553   -2.2318 H         1 <0>         0.0952
     63 H26         4.9853    0.9313   -2.2290 H         1 <0>         0.4270
@<TRIPOS>BOND
     1    1    6 ar
     2    1    2 ar
     3    1   41 1
     4    2    3 ar
     5    2   42 1
     6    3   39 1
     7    3    4 ar
     8    4    5 ar
     9    4   37 1
    10    5    6 ar
    11    5    7 1
    12    6   43 1
    13    7    8 am
    14    7   44 1
    15    8    9 2
    16    8   10 1
    17   10   11 1
    18   10   45 1
    19   10   46 1
    20   11   12 1
    21   11   47 1
    22   11   48 1
    23   12   13 1
    24   12   49 1
    25   12   50 1
    26   13   14 2
    27   13   15 am
    28   15   16 1
    29   15   51 1
    30   16   17 1
    31   16   52 1
    32   16   53 1
    33   17   18 1
    34   17   24 1
    35   17   19 1
    36   19   20 1
    37   19   21 1
    38   19   36 1
    39   21   22 1
    40   21   23 1
    41   21   35 1
    42   23   24 1
    43   23   25 1
    44   23   54 1
    45   25   29 1
    46   25   26 1
    47   26   27 2
    48   26   55 1
    49   27   28 1
    50   28   33 ar
    51   28   29 ar
    52   29   30 ar
    53   30   31 ar
    54   31   32 ar
    55   31   56 1
    56   32   33 ar
    57   33   34 1
    58   34   57 1
    59   34   58 1
    60   35   59 1
    61   36   60 1
    62   37   38 1
    63   37   61 1
    64   37   62 1
    65   38   39 am
    66   38   63 1
    67   39   40 2
@<TRIPOS>MOLECULE
CHEMBL1092777
   49    52     0     0     0
SMALL
USER_CHARGES

@<TRIPOS>ATOM
      1 C1         -0.6416    1.8345    0.5320 C.3       1 <0>        -0.1893
      2 C2         -0.3991    0.3296    0.4006 C.3       1 <0>        -0.0116
      3 N1         -1.6872   -0.3644    0.2701 N.4       1 <0>        -0.3828
      4 C3         -2.4606   -0.1936    1.5059 C.3       1 <0>        -0.0129
      5 C4         -3.8357   -0.8455    1.3458 C.3       1 <0>        -0.1410
      6 C5         -3.6561   -2.3386    1.0563 C.3       1 <0>        -0.1635
      7 C6         -2.7858   -2.5053   -0.1927 C.3       1 <0>         0.0605
      8 C7         -1.4496   -1.7919    0.0245 C.3       1 <0>         0.0045
      9 O1         -3.4539   -1.9344   -1.3195 O.3       1 <0>        -0.3201
     10 C8         -4.3522   -2.7219   -1.9686 C.ar      1 <0>         0.0901
     11 C9         -4.6703   -3.9774   -1.4555 C.ar      1 <0>        -0.1515
     12 C10        -5.5791   -4.7888   -2.0987 C.ar      1 <0>        -0.1134
     13 C11        -6.1859   -4.3517   -3.2720 C.ar      1 <0>         0.1625
     14 C12        -5.8679   -3.0908   -3.7937 C.ar      1 <0>        -0.0815
     15 C13        -4.9480   -2.2704   -3.1290 C.ar      1 <0>        -0.0906
     16 C14        -6.5041   -2.6196   -5.0442 C.2       1 <0>         0.0047
     17 C15        -7.3674   -3.4454   -5.6547 C.2       1 <0>        -0.1509
     18 C16        -7.6696   -4.7087   -5.0664 C.2       1 <0>         0.5381
     19 O2         -8.4825   -5.4282   -5.6208 O.2       1 <0>        -0.5192
     20 N2         -7.1028   -5.1410   -3.9349 N.am      1 <0>        -0.6271
     21 H1         -7.3369   -6.0126   -3.5793 H         1 <0>         0.4221
     22 C17        -8.0640   -3.1802   -6.9677 C.3       1 <0>        -0.0341
     23 S1         -8.0474   -1.4058   -7.3436 S.3       1 <0>        -0.2318
     24 C18        -6.3237   -0.9648   -6.9525 C.3       1 <0>        -0.0899
     25 C19        -6.1079   -1.2362   -5.4707 C.3       1 <0>        -0.0899
     26 H2          0.3143    2.3495    0.6288 H         1 <0>         0.1072
     27 H3         -1.1617    2.1975   -0.3545 H         1 <0>         0.0810
     28 H4         -1.2500    2.0288    1.4153 H         1 <0>         0.0807
     29 H5          0.2093    0.1354   -0.4827 H         1 <0>         0.1310
     30 H6          0.1211   -0.0334    1.2870 H         1 <0>         0.1295
     31 H7         -1.9302   -0.6640    2.3339 H         1 <0>         0.1294
     32 H8         -2.5848    0.8694    1.7123 H         1 <0>         0.1344
     33 H9         -4.4077   -0.7192    2.2650 H         1 <0>         0.1142
     34 H10        -4.3671   -0.3757    0.5182 H         1 <0>         0.0937
     35 H11        -3.1704   -2.8187    1.9058 H         1 <0>         0.0984
     36 H12        -4.6304   -2.7965    0.8854 H         1 <0>         0.1010
     37 H13        -2.6073   -3.5653   -0.3731 H         1 <0>         0.1186
     38 H14        -0.8274   -1.9087   -0.8628 H         1 <0>         0.1393
     39 H15        -0.9408   -2.2282    0.8840 H         1 <0>         0.1466
     40 H16        -4.1996   -4.3181   -0.5451 H         1 <0>         0.1393
     41 H17        -5.8195   -5.7608   -1.6938 H         1 <0>         0.1450
     42 H18        -4.7037   -1.2950   -3.5231 H         1 <0>         0.1486
     43 H19        -7.5526   -3.7222   -7.7631 H         1 <0>         0.1075
     44 H20        -9.0957   -3.5259   -6.9049 H         1 <0>         0.1313
     45 H21        -5.6418   -1.5757   -7.5440 H         1 <0>         0.0924
     46 H22        -6.1545    0.0910   -7.1640 H         1 <0>         0.1207
     47 H23        -6.6895   -0.5150   -4.8965 H         1 <0>         0.1042
     48 H24        -5.0526   -1.0899   -5.2402 H         1 <0>         0.0953
     49 H25        -2.2026    0.0278   -0.5036 H         1 <0>         0.4294
@<TRIPOS>BOND
     1    1    2 1
     2    1   26 1
     3    1   27 1
     4    1   28 1
     5    2    3 1
     6    2   29 1
     7    2   30 1
     8    3    8 1
     9    3    4 1
    10    3   49 1
    11    4    5 1
    12    4   31 1
    13    4   32 1
    14    5    6 1
    15    5   33 1
    16    5   34 1
    17    6    7 1
    18    6   35 1
    19    6   36 1
    20    7    8 1
    21    7    9 1
    22    7   37 1
    23    8   38 1
    24    8   39 1
    25    9   10 1
    26   10   15 ar
    27   10   11 ar
    28   11   12 ar
    29   11   40 1
    30   12   13 ar
    31   12   41 1
    32   13   20 1
    33   13   14 ar
    34   14   15 ar
    35   14   16 1
    36   15   42 1
    37   16   25 1
    38   16   17 2
    39   17   18 1
    40   17   22 1
    41   18   19 2
    42   18   20 am
    43   20   21 1
    44   22   23 1
    45   22   43 1
    46   22   44 1
    47   23   24 1
    48   24   25 1
    49   24   45 1
    50   24   46 1
    51   25   47 1
    52   25   48 1
@<TRIPOS>MOLECULE
CHEMBL1092777__1
   49    52     0     0     0
SMALL
USER_CHARGES

@<TRIPOS>ATOM
      1 C1          0.3943    1.3023   -0.5246 C.3       1 <0>        -0.1894
      2 C2          0.2879   -0.2095   -0.3148 C.3       1 <0>        -0.0093
      3 N1         -1.1247   -0.6110   -0.3529 N.4       1 <0>        -0.3790
      4 C3         -1.8354   -0.0025    0.7781 C.3       1 <0>        -0.0167
      5 C4         -3.3232   -0.3513    0.6977 C.3       1 <0>        -0.1421
      6 C5         -3.4886   -1.8729    0.7478 C.3       1 <0>        -0.1677
      7 C6         -2.6826   -2.5020   -0.3922 C.3       1 <0>         0.0696
      8 C7         -1.2185   -2.0735   -0.2715 C.3       1 <0>        -0.0052
      9 O1         -2.7713   -3.9259   -0.3103 O.3       1 <0>        -0.2941
     10 C8         -3.8530   -4.5113   -0.8899 C.ar      1 <0>         0.0880
     11 C9         -4.8631   -3.7184   -1.4300 C.ar      1 <0>        -0.1550
     12 C10        -5.9659   -4.2936   -2.0223 C.ar      1 <0>        -0.1145
     13 C11        -6.0734   -5.6795   -2.0824 C.ar      1 <0>         0.1610
     14 C12        -5.0614   -6.4818   -1.5387 C.ar      1 <0>        -0.0800
     15 C13        -3.9410   -5.8878   -0.9448 C.ar      1 <0>        -0.0876
     16 C14        -5.1697   -7.9568   -1.5930 C.2       1 <0>         0.0066
     17 C15        -6.2679   -8.4815   -2.1576 C.2       1 <0>        -0.1522
     18 C16        -7.2555   -7.6166   -2.7143 C.2       1 <0>         0.5387
     19 O2         -8.2285   -8.1161   -3.2523 O.2       1 <0>        -0.5201
     20 N2         -7.1642   -6.2830   -2.6734 N.am      1 <0>        -0.6273
     21 H1         -7.8674   -5.7382   -3.0602 H         1 <0>         0.4215
     22 C17        -6.5968   -9.9523   -2.2481 C.3       1 <0>        -0.0336
     23 S1         -5.0983  -10.9490   -2.0224 S.3       1 <0>        -0.2329
     24 C18        -4.3216  -10.1244   -0.5957 C.3       1 <0>        -0.0890
     25 C19        -3.9998   -8.6967   -1.0129 C.3       1 <0>        -0.0919
     26 H2          1.4424    1.6001   -0.4964 H         1 <0>         0.1088
     27 H3         -0.0323    1.5657   -1.4925 H         1 <0>         0.0813
     28 H4         -0.1515    1.8180    0.2654 H         1 <0>         0.0814
     29 H5          0.8336   -0.7253   -1.1049 H         1 <0>         0.1331
     30 H6          0.7145   -0.4729    0.6530 H         1 <0>         0.1318
     31 H7         -1.4234   -0.3831    1.7127 H         1 <0>         0.1331
     32 H8         -1.7141    1.0801    0.7428 H         1 <0>         0.1379
     33 H9         -3.8488    0.0999    1.5393 H         1 <0>         0.1209
     34 H10        -3.7362    0.0291   -0.2365 H         1 <0>         0.0903
     35 H11        -3.1222   -2.2481    1.7034 H         1 <0>         0.0968
     36 H12        -4.5419   -2.1290    0.6340 H         1 <0>         0.1012
     37 H13        -3.0823   -2.1662   -1.3491 H         1 <0>         0.0943
     38 H14        -0.6418   -2.5198   -1.0816 H         1 <0>         0.1410
     39 H15        -0.8197   -2.4100    0.6855 H         1 <0>         0.1418
     40 H16        -4.7810   -2.6425   -1.3835 H         1 <0>         0.1359
     41 H17        -6.7443   -3.6711   -2.4382 H         1 <0>         0.1440
     42 H18        -3.1550   -6.5010   -0.5296 H         1 <0>         0.1513
     43 H19        -7.3202  -10.2083   -1.4740 H         1 <0>         0.1072
     44 H20        -7.0281  -10.1659   -3.2260 H         1 <0>         0.1309
     45 H21        -5.0112  -10.1171    0.2484 H         1 <0>         0.0926
     46 H22        -3.4044  -10.6455   -0.3210 H         1 <0>         0.1213
     47 H23        -3.2018   -8.7224   -1.7549 H         1 <0>         0.1052
     48 H24        -3.6415   -8.1514   -0.1397 H         1 <0>         0.0972
     49 H25        -1.5396   -0.2959   -1.2170 H         1 <0>         0.4228
@<TRIPOS>BOND
     1    1    2 1
     2    1   26 1
     3    1   27 1
     4    1   28 1
     5    2    3 1
     6    2   29 1
     7    2   30 1
     8    3    8 1
     9    3    4 1
    10    3   49 1
    11    4    5 1
    12    4   31 1
    13    4   32 1
    14    5    6 1
    15    5   33 1
    16    5   34 1
    17    6    7 1
    18    6   35 1
    19    6   36 1
    20    7    8 1
    21    7    9 1
    22    7   37 1
    23    8   38 1
    24    8   39 1
    25    9   10 1
    26   10   15 ar
    27   10   11 ar
    28   11   12 ar
    29   11   40 1
    30   12   13 ar
    31   12   41 1
    32   13   20 1
    33   13   14 ar
    34   14   15 ar
    35   14   16 1
    36   15   42 1
    37   16   25 1
    38   16   17 2
    39   17   18 1
    40   17   22 1
    41   18   19 2
    42   18   20 am
    43   20   21 1
    44   22   23 1
    45   22   43 1
    46   22   44 1
    47   23   24 1
    48   24   25 1
    49   24   45 1
    50   24   46 1
    51   25   47 1
    52   25   48 1
@<TRIPOS>MOLECULE
CHEMBL593201
   47    51     0     0     0
SMALL
USER_CHARGES

@<TRIPOS>ATOM
      1 C1         -0.0184    1.5028    0.0103 C.3       1 <0>        -0.1025
      2 C2          0.0021   -0.0041    0.0020 C.2       1 <0>        -0.0871
      3 C3          0.0062   -0.7323   -1.2582 C.ar      1 <0>        -0.0842
      4 C4         -0.0077   -0.2203   -2.5774 C.ar      1 <0>        -0.0745
      5 C5         -0.0021   -1.0581   -3.6480 C.ar      1 <0>        -0.1230
      6 C6          0.0178   -2.4376   -3.4903 C.ar      1 <0>        -0.0939
      7 C7          0.0323   -2.9767   -2.2194 C.ar      1 <0>        -0.0794
      8 C8          0.0263   -2.1376   -1.1257 C.ar      1 <0>        -0.1088
      9 S1          0.0384   -2.3909    0.6303 S.3       1 <0>         0.0382
     10 C9          0.0223   -0.6874    1.1554 C.2       1 <0>        -0.1204
     11 C10         0.0285   -0.1446    2.5612 C.3       1 <0>        -0.0562
     12 C11        -1.3901    0.0172    3.0434 C.2       1 <0>         0.5216
     13 O1         -2.3150   -0.2790    2.3171 O.2       1 <0>        -0.5125
     14 N1         -1.6309    0.4912    4.2819 N.am      1 <0>        -0.6067
     15 C12        -0.5341    0.8637    5.1810 C.3       1 <0>         0.1062
     16 C13        -0.6034    0.0685    6.4717 C.3       1 <0>        -0.0980
     17 C14        -1.9988   -0.2960    6.8850 C.ar      1 <0>        -0.0752
     18 C15        -2.1667   -0.8967    8.1314 C.ar      1 <0>        -0.0930
     19 C16        -3.4185   -1.2616    8.5823 C.ar      1 <0>        -0.1209
     20 C17        -4.5312   -1.0460    7.7938 C.ar      1 <0>        -0.0561
     21 C18        -4.3755   -0.4563    6.5431 C.ar      1 <0>        -0.1247
     22 C19        -3.1059   -0.0591    6.1074 C.ar      1 <0>        -0.0663
     23 C20        -3.0017    0.6601    4.7802 C.3       1 <0>         0.1718
     24 C21        -3.9964    0.0695    3.7853 C.3       1 <0>         0.1232
     25 N2         -5.3454    0.0800    4.3535 N.am      1 <0>        -0.7309
     26 C22        -5.5394   -0.2317    5.6600 C.2       1 <0>         0.5602
     27 O2         -6.6678   -0.3131    6.1044 O.2       1 <0>        -0.5311
     28 H1          1.0042    1.8801    0.0026 H         1 <0>         0.0732
     29 H2         -0.5455    1.8639   -0.8728 H         1 <0>         0.0693
     30 H3         -0.5286    1.8543    0.9071 H         1 <0>         0.0655
     31 H4         -0.0233    0.8480   -2.7354 H         1 <0>         0.1248
     32 H5         -0.0138   -0.6411   -4.6442 H         1 <0>         0.1279
     33 H6          0.0215   -3.0840   -4.3555 H         1 <0>         0.1349
     34 H7          0.0474   -4.0479   -2.0831 H         1 <0>         0.1314
     35 H8          0.5579   -0.8370    3.2157 H         1 <0>         0.1132
     36 H9          0.5295    0.8233    2.5748 H         1 <0>         0.1196
     37 H10         0.4174    0.6651    4.6878 H         1 <0>         0.0970
     38 H11        -0.6035    1.9270    5.4104 H         1 <0>         0.0804
     39 H12        -0.0269   -0.8481    6.3470 H         1 <0>         0.0854
     40 H13        -0.1474    0.6570    7.2678 H         1 <0>         0.0943
     41 H14        -1.3034   -1.0790    8.7542 H         1 <0>         0.1301
     42 H15        -3.5284   -1.7170    9.5554 H         1 <0>         0.1343
     43 H16        -5.5120   -1.3323    8.1439 H         1 <0>         0.1399
     44 H17        -3.2100    1.7208    4.9202 H         1 <0>         0.0974
     45 H18        -3.9856    0.6606    2.8696 H         1 <0>         0.1091
     46 H19        -3.7100   -0.9564    3.5538 H         1 <0>         0.0865
     47 H20        -6.1026    0.3025    3.7896 H         1 <0>         0.4097
@<TRIPOS>BOND
     1    1    2 1
     2    1   28 1
     3    1   29 1
     4    1   30 1
     5    2   10 2
     6    2    3 1
     7    3    8 ar
     8    3    4 ar
     9    4    5 ar
    10    4   31 1
    11    5    6 ar
    12    5   32 1
    13    6    7 ar
    14    6   33 1
    15    7    8 ar
    16    7   34 1
    17    8    9 1
    18    9   10 1
    19   10   11 1
    20   11   12 1
    21   11   35 1
    22   11   36 1
    23   12   13 2
    24   12   14 am
    25   14   23 1
    26   14   15 1
    27   15   16 1
    28   15   37 1
    29   15   38 1
    30   16   17 1
    31   16   39 1
    32   16   40 1
    33   17   22 ar
    34   17   18 ar
    35   18   19 ar
    36   18   41 1
    37   19   20 ar
    38   19   42 1
    39   20   21 ar
    40   20   43 1
    41   21   26 1
    42   21   22 ar
    43   22   23 1
    44   23   24 1
    45   23   44 1
    46   24   25 1
    47   24   45 1
    48   24   46 1
    49   25   26 am
    50   25   47 1
    51   26   27 2
@<TRIPOS>MOLECULE
CHEMBL593201__1
   47    51     0     0     0
SMALL
USER_CHARGES

@<TRIPOS>ATOM
      1 C1         -0.0184    1.5028    0.0103 C.3       1 <0>        -0.1027
      2 C2          0.0021   -0.0041    0.0020 C.2       1 <0>        -0.0867
      3 C3          0.0062   -0.7323   -1.2582 C.ar      1 <0>        -0.0842
      4 C4         -0.0077   -0.2203   -2.5774 C.ar      1 <0>        -0.0745
      5 C5         -0.0021   -1.0581   -3.6480 C.ar      1 <0>        -0.1229
      6 C6          0.0178   -2.4376   -3.4903 C.ar      1 <0>        -0.0938
      7 C7          0.0323   -2.9767   -2.2194 C.ar      1 <0>        -0.0794
      8 C8          0.0263   -2.1376   -1.1257 C.ar      1 <0>        -0.1088
      9 S1          0.0384   -2.3909    0.6303 S.3       1 <0>         0.0389
     10 C9          0.0223   -0.6874    1.1554 C.2       1 <0>        -0.1208
     11 C10         0.0285   -0.1446    2.5612 C.3       1 <0>        -0.0560
     12 C11        -1.3901    0.0172    3.0434 C.2       1 <0>         0.5218
     13 O1         -2.3150   -0.2790    2.3171 O.2       1 <0>        -0.5126
     14 N1         -1.6309    0.4912    4.2819 N.am      1 <0>        -0.6060
     15 C12        -0.5341    0.8637    5.1810 C.3       1 <0>         0.1058
     16 C13        -0.6536    2.3170    5.6016 C.3       1 <0>        -0.0977
     17 C14        -2.0682    2.8101    5.6829 C.ar      1 <0>        -0.0752
     18 C15        -2.2780    4.0860    6.2030 C.ar      1 <0>        -0.0938
     19 C16        -3.5496    4.6104    6.3098 C.ar      1 <0>        -0.1207
     20 C17        -4.6412    3.8773    5.8884 C.ar      1 <0>        -0.0562
     21 C18        -4.4439    2.6062    5.3579 C.ar      1 <0>        -0.1264
     22 C19        -3.1534    2.0688    5.2839 C.ar      1 <0>        -0.0676
     23 C20        -3.0017    0.6601    4.7802 C.3       1 <0>         0.1711
     24 C21        -4.0021    0.3993    3.6580 C.3       1 <0>         0.1224
     25 N2         -5.3566    0.7330    4.1015 N.am      1 <0>        -0.7225
     26 C22        -5.5848    1.8008    4.8734 C.2       1 <0>         0.5596
     27 O2         -6.7221    2.1161    5.1642 O.2       1 <0>        -0.5363
     28 H1          1.0042    1.8801    0.0026 H         1 <0>         0.0733
     29 H2         -0.5455    1.8639   -0.8728 H         1 <0>         0.0693
     30 H3         -0.5286    1.8543    0.9071 H         1 <0>         0.0649
     31 H4         -0.0233    0.8480   -2.7354 H         1 <0>         0.1247
     32 H5         -0.0138   -0.6411   -4.6442 H         1 <0>         0.1279
     33 H6          0.0215   -3.0840   -4.3555 H         1 <0>         0.1349
     34 H7          0.0474   -4.0479   -2.0831 H         1 <0>         0.1316
     35 H8          0.5579   -0.8370    3.2157 H         1 <0>         0.1144
     36 H9          0.5295    0.8233    2.5748 H         1 <0>         0.1187
     37 H10        -0.5656    0.2299    6.0673 H         1 <0>         0.0806
     38 H11         0.4163    0.7155    4.6683 H         1 <0>         0.0972
     39 H12        -0.1871    2.4356    6.5795 H         1 <0>         0.0943
     40 H13        -0.1114    2.9325    4.8838 H         1 <0>         0.0852
     41 H14        -1.4319    4.6733    6.5279 H         1 <0>         0.1298
     42 H15        -3.6918    5.5973    6.7246 H         1 <0>         0.1340
     43 H16        -5.6375    4.2860    5.9701 H         1 <0>         0.1397
     44 H17        -3.1799   -0.0372    5.5988 H         1 <0>         0.0971
     45 H18        -3.7437    1.0117    2.7941 H         1 <0>         0.0879
     46 H19        -3.9631   -0.6531    3.3767 H         1 <0>         0.1104
     47 H20        -6.1004    0.1673    3.8414 H         1 <0>         0.4094
@<TRIPOS>BOND
     1    1    2 1
     2    1   28 1
     3    1   29 1
     4    1   30 1
     5    2   10 2
     6    2    3 1
     7    3    8 ar
     8    3    4 ar
     9    4    5 ar
    10    4   31 1
    11    5    6 ar
    12    5   32 1
    13    6    7 ar
    14    6   33 1
    15    7    8 ar
    16    7   34 1
    17    8    9 1
    18    9   10 1
    19   10   11 1
    20   11   12 1
    21   11   35 1
    22   11   36 1
    23   12   13 2
    24   12   14 am
    25   14   23 1
    26   14   15 1
    27   15   16 1
    28   15   37 1
    29   15   38 1
    30   16   17 1
    31   16   39 1
    32   16   40 1
    33   17   22 ar
    34   17   18 ar
    35   18   19 ar
    36   18   41 1
    37   19   20 ar
    38   19   42 1
    39   20   21 ar
    40   20   43 1
    41   21   26 1
    42   21   22 ar
    43   22   23 1
    44   23   24 1
    45   23   44 1
    46   24   25 1
    47   24   45 1
    48   24   46 1
    49   25   26 am
    50   25   47 1
    51   26   27 2
@<TRIPOS>MOLECULE
CHEMBL196450
   50    54     0     0     0
SMALL
USER_CHARGES

@<TRIPOS>ATOM
      1 C1         -0.0167    1.3781    0.0096 C.ar      1 <0>        -0.1108
      2 C2          1.1709    2.0855    0.0021 C.ar      1 <0>        -0.1160
      3 C3          2.3773    1.4107   -0.0130 C.ar      1 <0>        -0.0982
      4 C4          2.3960    0.0285   -0.0201 C.ar      1 <0>        -0.0817
      5 C5          1.2084   -0.6789   -0.0117 C.ar      1 <0>        -0.1109
      6 C6          0.0021   -0.0041    0.0020 C.ar      1 <0>        -0.1128
      7 C7          3.7112   -0.7071   -0.0376 C.3       1 <0>        -0.0778
      8 C8          3.7741   -1.6781   -1.2341 C.3       1 <0>        -0.1486
      9 C9          3.9197   -3.0357   -0.5819 C.2       1 <0>         0.5278
     10 O1          4.0061   -4.0919   -1.1707 O.2       1 <0>        -0.4643
     11 N1          3.9383   -2.8856    0.7483 N.am      1 <0>        -0.5300
     12 C10         3.8278   -1.6181    1.1650 C.2       1 <0>         0.5341
     13 O2          3.8224   -1.2574    2.3223 O.2       1 <0>        -0.4524
     14 C11         4.0629   -3.9674    1.6327 C.ar      1 <0>         0.0760
     15 C12         5.3195   -4.3862    2.0465 C.ar      1 <0>        -0.0545
     16 C13         5.4394   -5.4515    2.9179 C.ar      1 <0>        -0.0776
     17 C14         4.3091   -6.1017    3.3783 C.ar      1 <0>        -0.0585
     18 C15         3.0550   -5.6882    2.9690 C.ar      1 <0>        -0.1418
     19 C16         2.9275   -4.6186    2.1011 C.ar      1 <0>         0.1217
     20 F1          1.7019   -4.2107    1.7053 F         1 <0>        -0.1306
     21 C17         6.8042   -5.9060    3.3670 C.3       1 <0>        -0.0163
     22 C18         7.1943   -5.1633    4.6189 C.2       1 <0>         0.1352
     23 C19         8.4873   -5.4246    5.2515 C.ar      1 <0>        -0.0595
     24 C20         9.3893   -6.3530    4.7284 C.ar      1 <0>        -0.0979
     25 C21        10.5857   -6.5617    5.3558 C.ar      1 <0>        -0.0871
     26 C22        10.9181   -5.8626    6.5091 C.ar      1 <0>        -0.1105
     27 C23        10.0478   -4.9408    7.0483 C.ar      1 <0>        -0.0543
     28 C24         8.8221   -4.7107    6.4248 C.ar      1 <0>        -0.1253
     29 C25         7.8521   -3.7414    6.9489 C.2       1 <0>         0.5284
     30 O3          8.0961   -3.1022    7.9567 O.2       1 <0>        -0.5202
     31 N2          6.6853   -3.5715    6.2928 N.am      1 <0>        -0.5321
     32 H1          6.0403   -2.9324    6.6342 H         1 <0>         0.4375
     33 N3          6.3841   -4.2868    5.1334 N.2       1 <0>        -0.2187
     34 H2         -0.9591    1.9053    0.0259 H         1 <0>         0.1260
     35 H3          1.1563    3.1654    0.0076 H         1 <0>         0.1277
     36 H4          3.3051    1.9634   -0.0196 H         1 <0>         0.1280
     37 H5          1.2231   -1.7588   -0.0176 H         1 <0>         0.1172
     38 H6         -0.9258   -0.5567    0.0082 H         1 <0>         0.1263
     39 H7          4.5428   -0.0032   -0.0676 H         1 <0>         0.1372
     40 H8          2.8542   -1.6291   -1.8168 H         1 <0>         0.1290
     41 H9          4.6385   -1.4590   -1.8609 H         1 <0>         0.1311
     42 H10         6.2032   -3.8799    1.6873 H         1 <0>         0.1352
     43 H11         4.4064   -6.9346    4.0589 H         1 <0>         0.1408
     44 H12         2.1741   -6.1982    3.3300 H         1 <0>         0.1465
     45 H13         6.7816   -6.9764    3.5717 H         1 <0>         0.1132
     46 H14         7.5319   -5.7016    2.5817 H         1 <0>         0.1096
     47 H15         9.1430   -6.9038    3.8327 H         1 <0>         0.1421
     48 H16        11.2819   -7.2803    4.9494 H         1 <0>         0.1368
     49 H17        11.8688   -6.0439    6.9884 H         1 <0>         0.1376
     50 H18        10.3125   -4.4013    7.9457 H         1 <0>         0.1436
@<TRIPOS>BOND
     1    1    6 ar
     2    1    2 ar
     3    1   34 1
     4    2    3 ar
     5    2   35 1
     6    3    4 ar
     7    3   36 1
     8    4    5 ar
     9    4    7 1
    10    5    6 ar
    11    5   37 1
    12    6   38 1
    13    7   12 1
    14    7    8 1
    15    7   39 1
    16    8    9 1
    17    8   40 1
    18    8   41 1
    19    9   10 2
    20    9   11 am
    21   11   12 am
    22   11   14 1
    23   12   13 2
    24   14   19 ar
    25   14   15 ar
    26   15   16 ar
    27   15   42 1
    28   16   17 ar
    29   16   21 1
    30   17   18 ar
    31   17   43 1
    32   18   19 ar
    33   18   44 1
    34   19   20 1
    35   21   22 1
    36   21   45 1
    37   21   46 1
    38   22   33 2
    39   22   23 1
    40   23   28 ar
    41   23   24 ar
    42   24   25 ar
    43   24   47 1
    44   25   26 ar
    45   25   48 1
    46   26   27 ar
    47   26   49 1
    48   27   28 ar
    49   27   50 1
    50   28   29 1
    51   29   30 2
    52   29   31 am
    53   31   32 1
    54   31   33 1
@<TRIPOS>MOLECULE
CHEMBL196450__1
   50    54     0     0     0
SMALL
USER_CHARGES

@<TRIPOS>ATOM
      1 C1         -0.0167    1.3781    0.0096 C.ar      1 <0>        -0.1113
      2 C2          1.1709    2.0855    0.0021 C.ar      1 <0>        -0.1146
      3 C3          2.3773    1.4107   -0.0130 C.ar      1 <0>        -0.0980
      4 C4          2.3960    0.0285   -0.0201 C.ar      1 <0>        -0.0794
      5 C5          1.2084   -0.6789   -0.0117 C.ar      1 <0>        -0.1130
      6 C6          0.0021   -0.0041    0.0020 C.ar      1 <0>        -0.1133
      7 C7          3.7112   -0.7071   -0.0376 C.3       1 <0>        -0.0785
      8 C8          3.7991   -1.6900    1.1477 C.3       1 <0>        -0.1483
      9 C9          3.9308   -3.0410    0.4790 C.2       1 <0>         0.5279
     10 O1          4.0287   -4.1031    1.0552 O.2       1 <0>        -0.4642
     11 N1          3.9215   -2.8776   -0.8497 N.am      1 <0>        -0.5299
     12 C10         3.8025   -1.6061   -1.2513 C.2       1 <0>         0.5345
     13 O2          3.7721   -1.2339   -2.4047 O.2       1 <0>        -0.4525
     14 C11         4.0283   -3.9505   -1.7473 C.ar      1 <0>         0.0761
     15 C12         2.8854   -4.5924   -2.2029 C.ar      1 <0>        -0.0543
     16 C13         2.9933   -5.6483   -3.0871 C.ar      1 <0>        -0.0775
     17 C14         4.2384   -6.0671   -3.5189 C.ar      1 <0>        -0.0585
     18 C15         5.3800   -5.4308   -3.0680 C.ar      1 <0>        -0.1416
     19 C16         5.2788   -4.3691   -2.1869 C.ar      1 <0>         0.1215
     20 F1          6.3939   -3.7435   -1.7504 F         1 <0>        -0.1304
     21 C17         1.7520   -6.3452   -3.5816 C.3       1 <0>        -0.0163
     22 C18         1.2641   -5.6710   -4.8379 C.2       1 <0>         0.1350
     23 C19         0.0619   -6.1620   -5.5118 C.ar      1 <0>        -0.0594
     24 C20        -0.6630   -7.2513   -5.0248 C.ar      1 <0>        -0.0980
     25 C21        -1.7804   -7.6724   -5.6901 C.ar      1 <0>        -0.0871
     26 C22        -2.2063   -7.0317   -6.8465 C.ar      1 <0>        -0.1105
     27 C23        -1.5108   -5.9546   -7.3506 C.ar      1 <0>        -0.0543
     28 C24        -0.3686   -5.5069   -6.6882 C.ar      1 <0>        -0.1252
     29 C25         0.4154   -4.3645   -7.1738 C.2       1 <0>         0.5283
     30 O3          0.0835   -3.7681   -8.1827 O.2       1 <0>        -0.5202
     31 N2          1.5102   -3.9875   -6.4810 N.am      1 <0>        -0.5320
     32 H1          2.0323   -3.2334   -6.7969 H         1 <0>         0.4375
     33 N3          1.9083   -4.6501   -5.3196 N.2       1 <0>        -0.2183
     34 H2         -0.9591    1.9053    0.0259 H         1 <0>         0.1260
     35 H3          1.1563    3.1654    0.0076 H         1 <0>         0.1280
     36 H4          3.3051    1.9634   -0.0196 H         1 <0>         0.1286
     37 H5          1.2231   -1.7588   -0.0176 H         1 <0>         0.1156
     38 H6         -0.9258   -0.5567    0.0082 H         1 <0>         0.1257
     39 H7          4.5433   -0.0034   -0.0179 H         1 <0>         0.1374
     40 H8          4.6765   -1.4771    1.7584 H         1 <0>         0.1310
     41 H9          2.8916   -1.6469    1.7499 H         1 <0>         0.1292
     42 H10         1.9123   -4.2670   -1.8660 H         1 <0>         0.1341
     43 H11         4.3194   -6.8934   -4.2096 H         1 <0>         0.1409
     44 H12         6.3511   -5.7604   -3.4067 H         1 <0>         0.1468
     45 H13         1.9820   -7.3890   -3.7952 H         1 <0>         0.1132
     46 H14         0.9770   -6.2931   -2.8168 H         1 <0>         0.1093
     47 H15        -0.3424   -7.7589   -4.1270 H         1 <0>         0.1420
     48 H16        -2.3396   -8.5152   -5.3115 H         1 <0>         0.1368
     49 H17        -3.0918   -7.3818   -7.3561 H         1 <0>         0.1376
     50 H18        -1.8472   -5.4616   -8.2507 H         1 <0>         0.1436
@<TRIPOS>BOND
     1    1    6 ar
     2    1    2 ar
     3    1   34 1
     4    2    3 ar
     5    2   35 1
     6    3    4 ar
     7    3   36 1
     8    4    5 ar
     9    4    7 1
    10    5    6 ar
    11    5   37 1
    12    6   38 1
    13    7   12 1
    14    7    8 1
    15    7   39 1
    16    8    9 1
    17    8   40 1
    18    8   41 1
    19    9   10 2
    20    9   11 am
    21   11   12 am
    22   11   14 1
    23   12   13 2
    24   14   19 ar
    25   14   15 ar
    26   15   16 ar
    27   15   42 1
    28   16   17 ar
    29   16   21 1
    30   17   18 ar
    31   17   43 1
    32   18   19 ar
    33   18   44 1
    34   19   20 1
    35   21   22 1
    36   21   45 1
    37   21   46 1
    38   22   33 2
    39   22   23 1
    40   23   28 ar
    41   23   24 ar
    42   24   25 ar
    43   24   47 1
    44   25   26 ar
    45   25   48 1
    46   26   27 ar
    47   26   49 1
    48   27   28 ar
    49   27   50 1
    50   28   29 1
    51   29   30 2
    52   29   31 am
    53   31   32 1
    54   31   33 1
@<TRIPOS>MOLECULE
CHEMBL312316
   60    64     0     0     0
SMALL
USER_CHARGES

@<TRIPOS>ATOM
      1 C1         -0.0165    1.3631    0.0095 C.ar      1 <0>        -0.0782
      2 C2          1.1649    2.0935    0.0022 C.ar      1 <0>        -0.1289
      3 C3          2.3791    1.4638   -0.0123 C.ar      1 <0>        -0.0481
      4 C4          2.4269    0.0700   -0.0198 C.ar      1 <0>        -0.1496
      5 C5          1.2279   -0.6733   -0.0132 C.ar      1 <0>        -0.0013
      6 C6          0.0021   -0.0041    0.0020 C.ar      1 <0>        -0.1253
      7 C7          1.2981   -2.1430   -0.0228 C.2       1 <0>        -0.1335
      8 C8          2.4957   -2.7406   -0.0443 C.2       1 <0>         0.1121
      9 N1          3.6624   -2.0110   -0.0416 N.am      1 <0>        -0.6341
     10 C9          3.6937   -0.6686   -0.0330 C.2       1 <0>         0.5530
     11 O1          4.7568   -0.0742   -0.0366 O.2       1 <0>        -0.5183
     12 C10         2.6455   -4.2441   -0.0911 C.3       1 <0>         0.1461
     13 N2          1.3569   -4.8871    0.1785 N.am      1 <0>        -0.6064
     14 C11         0.1733   -4.3267   -0.4961 C.3       1 <0>         0.1095
     15 C12        -0.0062   -2.8954    0.0061 C.3       1 <0>        -0.0804
     16 C13         1.2588   -5.9454    1.0073 C.2       1 <0>         0.5250
     17 O2          0.1786   -6.4574    1.2117 O.2       1 <0>        -0.5152
     18 C14         2.4914   -6.4925    1.6799 C.3       1 <0>         0.0325
     19 N3          2.1214   -7.6358    2.5250 N.3       1 <0>        -0.5214
     20 C15         1.2766   -7.2083    3.6491 C.3       1 <0>         0.0204
     21 C16         0.8651   -8.4333    4.4687 C.3       1 <0>         0.0003
     22 N4          2.0667   -9.1146    4.9682 N.4       1 <0>        -0.3841
     23 C17         2.8880   -9.5572    3.8337 C.3       1 <0>        -0.0049
     24 C18         3.3164   -8.3415    3.0089 C.3       1 <0>         0.0274
     25 C19         1.6708  -10.2801    5.7699 C.3       1 <0>         0.0209
     26 C20         0.8684   -9.8235    7.0058 C.3       1 <0>        -0.1422
     27 C21         1.3231  -10.7861    8.1308 C.3       1 <0>        -0.1245
     28 C22         2.8342  -10.9623    7.8399 C.3       1 <0>        -0.1305
     29 C23         2.9207  -11.0042    6.3003 C.3       1 <0>        -0.1440
     30 H1         -0.9632    1.8825    0.0259 H         1 <0>         0.1327
     31 H2          1.1243    3.1728    0.0076 H         1 <0>         0.1345
     32 H3          3.2922    2.0405   -0.0183 H         1 <0>         0.1402
     33 H4         -0.9229   -0.5615    0.0081 H         1 <0>         0.1354
     34 H5          2.9984   -4.5416   -1.0785 H         1 <0>         0.1015
     35 H6          3.3705   -4.5586    0.6597 H         1 <0>         0.0989
     36 H7          0.3288   -4.3237   -1.5749 H         1 <0>         0.0845
     37 H8         -0.7081   -4.9187   -0.2498 H         1 <0>         0.1073
     38 H9         -0.3823   -2.9198    1.0289 H         1 <0>         0.0825
     39 H10        -0.7293   -2.3821   -0.6277 H         1 <0>         0.0959
     40 H11         3.2052   -6.8164    0.9225 H         1 <0>         0.1200
     41 H12         2.9436   -5.7160    2.2969 H         1 <0>         0.0774
     42 H13         1.8349   -6.5182    4.2818 H         1 <0>         0.0563
     43 H14         0.3856   -6.7110    3.2659 H         1 <0>         0.1396
     44 H15         0.2501   -8.1169    5.3112 H         1 <0>         0.1352
     45 H16         0.2952   -9.1168    3.8393 H         1 <0>         0.1400
     46 H17         3.7728  -10.0740    4.2055 H         1 <0>         0.1378
     47 H18         2.3077  -10.2349    3.2076 H         1 <0>         0.1396
     48 H19         3.9135   -8.6710    2.1586 H         1 <0>         0.1258
     49 H20         3.9083   -7.6701    3.6310 H         1 <0>         0.0619
     50 H21         1.0721  -10.9622    5.1663 H         1 <0>         0.1413
     51 H22         1.1159   -8.7933    7.2620 H         1 <0>         0.0854
     52 H23        -0.2016   -9.9261    6.8252 H         1 <0>         0.0987
     53 H24         1.1684  -10.3352    9.1110 H         1 <0>         0.0882
     54 H25         0.8016  -11.7404    8.0568 H         1 <0>         0.0839
     55 H26         3.3991  -10.1161    8.2309 H         1 <0>         0.0766
     56 H27         3.1987  -11.8961    8.2680 H         1 <0>         0.0875
     57 H28         2.9281  -12.0379    5.9547 H         1 <0>         0.1033
     58 H29         3.8210  -10.4908    5.9628 H         1 <0>         0.0836
     59 H30         4.5053   -2.4909   -0.0458 H         1 <0>         0.4114
     60 H31         2.6002   -8.4782    5.5413 H         1 <0>         0.4168
@<TRIPOS>BOND
     1    1    6 ar
     2    1    2 ar
     3    1   30 1
     4    2    3 ar
     5    2   31 1
     6    3    4 ar
     7    3   32 1
     8    4   10 1
     9    4    5 ar
    10    5    6 ar
    11    5    7 1
    12    6   33 1
    13    7   15 1
    14    7    8 2
    15    8    9 1
    16    8   12 1
    17    9   10 am
    18    9   59 1
    19   10   11 2
    20   12   13 1
    21   12   34 1
    22   12   35 1
    23   13   14 1
    24   13   16 am
    25   14   15 1
    26   14   36 1
    27   14   37 1
    28   15   38 1
    29   15   39 1
    30   16   17 2
    31   16   18 1
    32   18   19 1
    33   18   40 1
    34   18   41 1
    35   19   24 1
    36   19   20 1
    37   20   21 1
    38   20   42 1
    39   20   43 1
    40   21   22 1
    41   21   44 1
    42   21   45 1
    43   22   23 1
    44   22   25 1
    45   22   60 1
    46   23   24 1
    47   23   46 1
    48   23   47 1
    49   24   48 1
    50   24   49 1
    51   25   29 1
    52   25   26 1
    53   25   50 1
    54   26   27 1
    55   26   51 1
    56   26   52 1
    57   27   28 1
    58   27   53 1
    59   27   54 1
    60   28   29 1
    61   28   55 1
    62   28   56 1
    63   29   57 1
    64   29   58 1
@<TRIPOS>MOLECULE
CHEMBL309636
   51    54     0     0     0
SMALL
USER_CHARGES

@<TRIPOS>ATOM
      1 C1         -0.0165    1.3631    0.0095 C.ar      1 <0>        -0.0776
      2 C2          1.1649    2.0935    0.0022 C.ar      1 <0>        -0.1268
      3 C3          2.3791    1.4638   -0.0123 C.ar      1 <0>        -0.0485
      4 C4          2.4269    0.0700   -0.0198 C.ar      1 <0>        -0.1486
      5 C5          1.2279   -0.6733   -0.0132 C.ar      1 <0>        -0.0040
      6 C6          0.0021   -0.0041    0.0020 C.ar      1 <0>        -0.1242
      7 C7          1.2981   -2.1430   -0.0228 C.2       1 <0>        -0.1284
      8 C8          2.4957   -2.7406   -0.0443 C.2       1 <0>         0.1062
      9 N1          3.6624   -2.0110   -0.0416 N.am      1 <0>        -0.6345
     10 C9          3.6937   -0.6686   -0.0330 C.2       1 <0>         0.5535
     11 O1          4.7568   -0.0742   -0.0366 O.2       1 <0>        -0.5169
     12 C10         2.6455   -4.2441   -0.0911 C.3       1 <0>         0.1464
     13 N2          1.3569   -4.8871    0.1785 N.am      1 <0>        -0.6017
     14 C11         0.1733   -4.3267   -0.4961 C.3       1 <0>         0.1083
     15 C12        -0.0062   -2.8954    0.0061 C.3       1 <0>        -0.0828
     16 C13         1.2588   -5.9454    1.0073 C.2       1 <0>         0.5303
     17 O2          0.1786   -6.4574    1.2117 O.2       1 <0>        -0.5214
     18 C14         2.4914   -6.4925    1.6799 C.3       1 <0>        -0.1776
     19 C15         2.1061   -7.6832    2.5600 C.3       1 <0>         0.0064
     20 N3          3.3076   -8.2165    3.2157 N.4       1 <0>        -0.3835
     21 C16         4.2204   -8.7534    2.1993 C.3       1 <0>        -0.0139
     22 C17         5.5084   -9.2366    2.8693 C.3       1 <0>        -0.1456
     23 C18         5.1696  -10.3329    3.8835 C.3       1 <0>        -0.1401
     24 C19         4.1597   -9.7839    4.8955 C.3       1 <0>        -0.1462
     25 C20         2.9216   -9.2804    4.1504 C.3       1 <0>        -0.0060
     26 H1         -0.9632    1.8825    0.0259 H         1 <0>         0.1336
     27 H2          1.1243    3.1728    0.0076 H         1 <0>         0.1353
     28 H3          3.2922    2.0405   -0.0183 H         1 <0>         0.1408
     29 H4         -0.9229   -0.5615    0.0081 H         1 <0>         0.1359
     30 H5          2.9984   -4.5416   -1.0785 H         1 <0>         0.1023
     31 H6          3.3705   -4.5586    0.6597 H         1 <0>         0.0982
     32 H7          0.3288   -4.3237   -1.5749 H         1 <0>         0.0874
     33 H8         -0.7081   -4.9187   -0.2498 H         1 <0>         0.1095
     34 H9         -0.3823   -2.9198    1.0289 H         1 <0>         0.0853
     35 H10        -0.7293   -2.3821   -0.6277 H         1 <0>         0.0983
     36 H11         3.2052   -6.8164    0.9225 H         1 <0>         0.1187
     37 H12         2.9436   -5.7160    2.2969 H         1 <0>         0.1183
     38 H13         1.3923   -7.3593    3.3175 H         1 <0>         0.1412
     39 H14         1.6539   -8.4597    1.9431 H         1 <0>         0.1402
     40 H15         3.7424   -9.5885    1.6872 H         1 <0>         0.1310
     41 H16         4.4580   -7.9730    1.4765 H         1 <0>         0.1283
     42 H17         6.1841   -9.6365    2.1132 H         1 <0>         0.1125
     43 H18         5.9874   -8.4022    3.3816 H         1 <0>         0.0878
     44 H19         4.7373  -11.1885    3.3647 H         1 <0>         0.0825
     45 H20         6.0765  -10.6408    4.4040 H         1 <0>         0.0947
     46 H21         3.8714  -10.5750    5.5877 H         1 <0>         0.1134
     47 H22         4.6107   -8.9609    5.4498 H         1 <0>         0.0877
     48 H23         2.2005   -8.8891    4.8680 H         1 <0>         0.1319
     49 H24         2.4714  -10.1043    3.5967 H         1 <0>         0.1303
     50 H25         4.5053   -2.4909   -0.0458 H         1 <0>         0.4104
     51 H26         3.7696   -7.4763    3.7225 H         1 <0>         0.4216
@<TRIPOS>BOND
     1    1    6 ar
     2    1    2 ar
     3    1   26 1
     4    2    3 ar
     5    2   27 1
     6    3    4 ar
     7    3   28 1
     8    4   10 1
     9    4    5 ar
    10    5    6 ar
    11    5    7 1
    12    6   29 1
    13    7   15 1
    14    7    8 2
    15    8    9 1
    16    8   12 1
    17    9   10 am
    18    9   50 1
    19   10   11 2
    20   12   13 1
    21   12   30 1
    22   12   31 1
    23   13   14 1
    24   13   16 am
    25   14   15 1
    26   14   32 1
    27   14   33 1
    28   15   34 1
    29   15   35 1
    30   16   17 2
    31   16   18 1
    32   18   19 1
    33   18   36 1
    34   18   37 1
    35   19   20 1
    36   19   38 1
    37   19   39 1
    38   20   25 1
    39   20   21 1
    40   20   51 1
    41   21   22 1
    42   21   40 1
    43   21   41 1
    44   22   23 1
    45   22   42 1
    46   22   43 1
    47   23   24 1
    48   23   44 1
    49   23   45 1
    50   24   25 1
    51   24   46 1
    52   24   47 1
    53   25   48 1
    54   25   49 1
@<TRIPOS>MOLECULE
CHEMBL312183
   54    57     0     0     0
SMALL
USER_CHARGES

@<TRIPOS>ATOM
      1 C1         -0.0165    1.3630    0.0095 C.ar      1 <0>        -0.0763
      2 C2          1.1650    2.0935    0.0022 C.ar      1 <0>        -0.1307
      3 C3          2.3792    1.4638   -0.0116 C.ar      1 <0>        -0.0459
      4 C4          2.4270    0.0703   -0.0190 C.ar      1 <0>        -0.1503
      5 C5          1.2278   -0.6733   -0.0137 C.ar      1 <0>         0.0071
      6 C6          0.0021   -0.0041    0.0020 C.ar      1 <0>        -0.1289
      7 C7          1.3000   -2.1416   -0.0277 C.2       1 <0>        -0.1751
      8 C8          2.4951   -2.7439   -0.0514 C.2       1 <0>         0.1526
      9 N1          3.6618   -2.0119   -0.0445 N.am      1 <0>        -0.6364
     10 C9          3.6929   -0.6699   -0.0319 C.2       1 <0>         0.5509
     11 O1          4.7562   -0.0762   -0.0309 O.2       1 <0>        -0.5178
     12 C10         2.6503   -4.2445   -0.1067 C.3       1 <0>        -0.1067
     13 C11         1.3888   -4.9467    0.3894 C.3       1 <0>         0.1102
     14 N2          0.2365   -4.3195   -0.2805 N.am      1 <0>        -0.6117
     15 C12        -0.0029   -2.9005   -0.0010 C.3       1 <0>         0.1734
     16 C13        -0.5609   -5.0182   -1.1127 C.2       1 <0>         0.5204
     17 O2         -1.5023   -4.4739   -1.6497 O.2       1 <0>        -0.5333
     18 C14        -0.2827   -6.4757   -1.3760 C.3       1 <0>        -0.1388
     19 C15        -1.3277   -7.0269   -2.3481 C.3       1 <0>        -0.1361
     20 C16        -1.0452   -8.5067   -2.6154 C.3       1 <0>        -0.0102
     21 N3         -2.0486   -9.0359   -3.5487 N.4       1 <0>        -0.3825
     22 C17        -3.3730   -8.9926   -2.9173 C.3       1 <0>        -0.0130
     23 C18        -4.4331   -9.4669   -3.9137 C.3       1 <0>        -0.1463
     24 C19        -4.1168  -10.9027   -4.3422 C.3       1 <0>        -0.1395
     25 C20        -2.7042  -10.9496   -4.9315 C.3       1 <0>        -0.1469
     26 C21        -1.7081  -10.4204   -3.8974 C.3       1 <0>        -0.0064
     27 H1         -0.9632    1.8824    0.0259 H         1 <0>         0.1325
     28 H2          1.1243    3.1727    0.0070 H         1 <0>         0.1345
     29 H3          3.2923    2.0406   -0.0169 H         1 <0>         0.1405
     30 H4         -0.9229   -0.5615    0.0085 H         1 <0>         0.1332
     31 H5          2.8462   -4.5460   -1.1356 H         1 <0>         0.0950
     32 H6          3.4932   -4.5400    0.5181 H         1 <0>         0.1022
     33 H7          1.4317   -6.0061    0.1367 H         1 <0>         0.0993
     34 H8          1.2991   -4.8266    1.4690 H         1 <0>         0.0906
     35 H9         -0.4610   -2.7980    0.9827 H         1 <0>         0.0858
     36 H10        -0.6751   -2.4917   -0.7554 H         1 <0>         0.1053
     37 H11         0.7108   -6.5831   -1.8113 H         1 <0>         0.1060
     38 H12        -0.3304   -7.0298   -0.4386 H         1 <0>         0.1071
     39 H13        -2.3212   -6.9195   -1.9128 H         1 <0>         0.0967
     40 H14        -1.2799   -6.4728   -3.2855 H         1 <0>         0.0960
     41 H15        -0.0517   -8.6140   -3.0507 H         1 <0>         0.1320
     42 H16        -1.0930   -9.0608   -1.6780 H         1 <0>         0.1307
     43 H17        -3.3796   -9.6436   -2.0430 H         1 <0>         0.1284
     44 H18        -3.5952   -7.9707   -2.6099 H         1 <0>         0.1330
     45 H19        -5.4154   -9.4357   -3.4423 H         1 <0>         0.1121
     46 H20        -4.4274   -8.8164   -4.7882 H         1 <0>         0.0878
     47 H21        -4.1726  -11.5622   -3.4762 H         1 <0>         0.0815
     48 H22        -4.8365  -11.2254   -5.0945 H         1 <0>         0.0941
     49 H23        -2.4507  -11.9783   -5.1878 H         1 <0>         0.1121
     50 H24        -2.6626  -10.3299   -5.8273 H         1 <0>         0.0877
     51 H25        -0.7013  -10.4527   -4.3137 H         1 <0>         0.1297
     52 H26        -1.7503  -11.0410   -3.0023 H         1 <0>         0.1282
     53 H27         4.5051   -2.4912   -0.0489 H         1 <0>         0.4129
     54 H28        -2.0586   -8.4721   -4.3854 H         1 <0>         0.4233
@<TRIPOS>BOND
     1    1    6 ar
     2    1    2 ar
     3    1   27 1
     4    2    3 ar
     5    2   28 1
     6    3    4 ar
     7    3   29 1
     8    4   10 1
     9    4    5 ar
    10    5    6 ar
    11    5    7 1
    12    6   30 1
    13    7   15 1
    14    7    8 2
    15    8    9 1
    16    8   12 1
    17    9   10 am
    18    9   53 1
    19   10   11 2
    20   12   13 1
    21   12   31 1
    22   12   32 1
    23   13   14 1
    24   13   33 1
    25   13   34 1
    26   14   15 1
    27   14   16 am
    28   15   35 1
    29   15   36 1
    30   16   17 2
    31   16   18 1
    32   18   19 1
    33   18   37 1
    34   18   38 1
    35   19   20 1
    36   19   39 1
    37   19   40 1
    38   20   21 1
    39   20   41 1
    40   20   42 1
    41   21   26 1
    42   21   22 1
    43   21   54 1
    44   22   23 1
    45   22   43 1
    46   22   44 1
    47   23   24 1
    48   23   45 1
    49   23   46 1
    50   24   25 1
    51   24   47 1
    52   24   48 1
    53   25   26 1
    54   25   49 1
    55   25   50 1
    56   26   51 1
    57   26   52 1
@<TRIPOS>MOLECULE
CHEMBL323488
   51    54     0     0     0
SMALL
USER_CHARGES

@<TRIPOS>ATOM
      1 C1         -0.0164    1.3575    0.0095 C.ar      1 <0>        -0.0986
      2 C2          1.1681    2.0917    0.0021 C.ar      1 <0>        -0.1184
      3 C3          2.3778    1.4684   -0.0127 C.ar      1 <0>        -0.0944
      4 C4          2.4367    0.0628   -0.0207 C.ar      1 <0>        -0.0708
      5 C5          3.6667   -0.6105   -0.0354 C.ar      1 <0>        -0.0234
      6 C6          3.6843   -1.9985   -0.0425 C.ar      1 <0>        -0.1732
      7 C7          2.4786   -2.7277   -0.0356 C.ar      1 <0>        -0.0842
      8 C8          1.2813   -2.0907   -0.0218 C.ar      1 <0>        -0.1105
      9 C9          1.2309   -0.6840   -0.0133 C.ar      1 <0>        -0.0262
     10 C10         0.0021   -0.0041    0.0020 C.ar      1 <0>        -0.1151
     11 C11         4.9698   -2.7126   -0.0580 C.2       1 <0>         0.3954
     12 O1          6.0098   -2.0890   -0.0644 O.2       1 <0>        -0.4490
     13 C12         4.9947   -4.2194   -0.0658 C.3       1 <0>         0.0734
     14 N1          6.3837   -4.6848   -0.0809 N.am      1 <0>        -0.7234
     15 C13         6.6518   -6.0056   -0.0900 C.2       1 <0>         0.5255
     16 O2          5.7432   -6.8089   -0.0857 O.2       1 <0>        -0.5329
     17 C14         8.0807   -6.4843   -0.1056 C.3       1 <0>        -0.1629
     18 C15         8.1059   -8.0141   -0.1135 C.3       1 <0>         0.1167
     19 N2          9.4950   -8.4795   -0.1286 N.am      1 <0>        -0.5391
     20 C16        10.1207   -8.6807   -1.3490 C.2       1 <0>         0.2145
     21 C17        11.3943   -9.0824   -1.3493 C.2       1 <0>        -0.2480
     22 C18        12.0384   -9.3359   -0.0994 C.2       1 <0>         0.5551
     23 O3         13.1879   -9.7378   -0.0841 O.2       1 <0>        -0.5051
     24 N3         11.3892   -9.1350    1.0579 N.am      1 <0>        -0.6560
     25 H1         11.8330   -9.3052    1.9035 H         1 <0>         0.4350
     26 C19        10.1184   -8.6907    1.0354 C.2       1 <0>         0.6981
     27 O4          9.5323   -8.4842    2.0805 O.2       1 <0>        -0.5313
     28 C20        12.2646   -9.2789   -2.5654 C.3       1 <0>        -0.0101
     29 S1         11.2374   -9.4627   -4.0496 S.3       1 <0>        -0.2344
     30 C21        10.0172   -8.1300   -3.8178 C.3       1 <0>        -0.0832
     31 C22         9.2436   -8.4334   -2.5425 C.3       1 <0>        -0.1030
     32 H2         -0.9635    1.8763    0.0259 H         1 <0>         0.1281
     33 H3          1.1254    3.1708    0.0079 H         1 <0>         0.1283
     34 H4          3.2879    2.0498   -0.0186 H         1 <0>         0.1318
     35 H5          4.5922   -0.0540   -0.0415 H         1 <0>         0.1413
     36 H6          2.5083   -3.8073   -0.0417 H         1 <0>         0.1346
     37 H7          0.3656   -2.6634   -0.0173 H         1 <0>         0.1358
     38 H8         -0.9245   -0.5589    0.0082 H         1 <0>         0.1322
     39 H9          4.4951   -4.5957    0.8269 H         1 <0>         0.1096
     40 H10         4.4788   -4.5867   -0.9529 H         1 <0>         0.1098
     41 H11         7.1105   -4.0424   -0.0844 H         1 <0>         0.4119
     42 H12         8.5802   -6.1081   -0.9983 H         1 <0>         0.1028
     43 H13         8.5966   -6.1170    0.7816 H         1 <0>         0.1090
     44 H14         7.6064   -8.3904    0.7792 H         1 <0>         0.1176
     45 H15         7.5900   -8.3814   -1.0007 H         1 <0>         0.1116
     46 H16        12.9193   -8.4156   -2.6841 H         1 <0>         0.1028
     47 H17        12.8721  -10.1743   -2.4337 H         1 <0>         0.1278
     48 H18        10.5289   -7.1724   -3.7212 H         1 <0>         0.0957
     49 H19         9.3344   -8.1016   -4.6669 H         1 <0>         0.1260
     50 H20         8.6272   -9.3165   -2.7108 H         1 <0>         0.1176
     51 H21         8.5877   -7.5908   -2.3241 H         1 <0>         0.1053
@<TRIPOS>BOND
     1    1   10 ar
     2    1    2 ar
     3    1   32 1
     4    2    3 ar
     5    2   33 1
     6    3    4 ar
     7    3   34 1
     8    4    9 ar
     9    4    5 ar
    10    5    6 ar
    11    5   35 1
    12    6    7 ar
    13    6   11 1
    14    7    8 ar
    15    7   36 1
    16    8    9 ar
    17    8   37 1
    18    9   10 ar
    19   10   38 1
    20   11   12 2
    21   11   13 1
    22   13   14 1
    23   13   39 1
    24   13   40 1
    25   14   15 am
    26   14   41 1
    27   15   16 2
    28   15   17 1
    29   17   18 1
    30   17   42 1
    31   17   43 1
    32   18   19 1
    33   18   44 1
    34   18   45 1
    35   19   26 am
    36   19   20 1
    37   20   31 1
    38   20   21 2
    39   21   22 1
    40   21   28 1
    41   22   23 2
    42   22   24 am
    43   24   25 1
    44   24   26 am
    45   26   27 2
    46   28   29 1
    47   28   46 1
    48   28   47 1
    49   29   30 1
    50   30   31 1
    51   30   48 1
    52   30   49 1
    53   31   50 1
    54   31   51 1
@<TRIPOS>MOLECULE
CHEMBL108316
   56    59     0     0     0
SMALL
USER_CHARGES

@<TRIPOS>ATOM
      1 C1         -0.0158    1.3164    0.0093 C.ar      1 <0>         0.3843
      2 N1          1.1199    1.9953    0.0021 N.ar      1 <0>        -0.5998
      3 C2          2.2777    1.3547   -0.0124 C.ar      1 <0>         0.3846
      4 N2          2.3037    0.0344   -0.0198 N.ar      1 <0>        -0.6067
      5 C3          1.1640   -0.6516   -0.0126 C.ar      1 <0>         0.5985
      6 N3          0.0021   -0.0041    0.0020 N.ar      1 <0>        -0.6071
      7 N4          1.1869   -2.0312   -0.0207 N.pl3     1 <0>        -0.5718
      8 C4          2.4643   -2.7580   -0.0311 C.3       1 <0>         0.1101
      9 C5          2.4863   -3.7273    1.1573 C.3       1 <0>         0.0979
     10 N5          1.2339   -4.4962    1.1594 N.am      1 <0>        -0.6101
     11 C6         -0.0434   -3.7694    1.1699 C.3       1 <0>         0.0883
     12 C7         -0.0654   -2.8002   -0.0129 C.3       1 <0>         0.1082
     13 C8          1.2563   -5.8438    1.1515 C.2       1 <0>         0.5138
     14 O1          2.3166   -6.4326    1.1425 O.2       1 <0>        -0.5314
     15 C9         -0.0360   -6.6189    1.1539 C.3       1 <0>         0.0998
     16 N6          0.2556   -8.0545    1.1440 N.am      1 <0>        -0.7179
     17 C10        -0.7541   -8.9473    1.1442 C.2       1 <0>         0.5266
     18 O2         -1.9041   -8.5622    1.1525 O.2       1 <0>        -0.5337
     19 C11        -0.4541  -10.4241    1.1341 C.3       1 <0>        -0.1622
     20 C12        -1.7662  -11.2111    1.1365 C.3       1 <0>         0.1168
     21 N7         -1.4745  -12.6467    1.1266 N.am      1 <0>        -0.5392
     22 C13        -1.3420  -13.2950   -0.0914 C.2       1 <0>         0.2143
     23 C14        -1.0528  -14.5987   -0.0869 C.2       1 <0>        -0.2477
     24 C15        -0.9439  -15.2773    1.1656 C.2       1 <0>         0.5551
     25 O3         -0.7169  -16.4736    1.1854 O.2       1 <0>        -0.5049
     26 N8         -1.0888  -14.6093    2.3205 N.am      1 <0>        -0.6560
     27 H1         -1.0100  -15.0747    3.1679 H         1 <0>         0.4351
     28 C16        -1.3397  -13.2868    2.2931 C.2       1 <0>         0.6982
     29 O4         -1.4488  -12.6710    3.3358 O.2       1 <0>        -0.5313
     30 C17        -0.7938  -15.4564   -1.3004 C.3       1 <0>        -0.0102
     31 S1         -1.4742  -14.6658   -2.7850 S.3       1 <0>        -0.2343
     32 C18        -0.9293  -12.9416   -2.5639 C.3       1 <0>        -0.0833
     33 C19        -1.5725  -12.4174   -1.2879 C.3       1 <0>        -0.1027
     34 H2         -0.9587    1.8429    0.0256 H         1 <0>         0.2080
     35 H3          3.2025    1.9124   -0.0186 H         1 <0>         0.2079
     36 H4          2.5590   -3.3178   -0.9616 H         1 <0>         0.0773
     37 H5          3.2885   -2.0504    0.0585 H         1 <0>         0.1159
     38 H6          3.3328   -4.4070    1.0592 H         1 <0>         0.1112
     39 H7          2.5717   -3.1645    2.0868 H         1 <0>         0.0771
     40 H8         -0.8676   -4.4770    1.0802 H         1 <0>         0.1048
     41 H9         -0.1382   -3.2096    2.1003 H         1 <0>         0.0826
     42 H10        -0.9114   -2.1205    0.0889 H         1 <0>         0.1175
     43 H11        -0.1549   -3.3631   -0.9420 H         1 <0>         0.0780
     44 H12        -0.6072   -6.3703    2.0483 H         1 <0>         0.1034
     45 H13        -0.6166   -6.3600    0.2684 H         1 <0>         0.1036
     46 H14         1.1754   -8.3626    1.1374 H         1 <0>         0.4144
     47 H15         0.1171  -10.6727    0.2396 H         1 <0>         0.1033
     48 H16         0.1265  -10.6830    2.0195 H         1 <0>         0.1094
     49 H17        -2.3373  -10.9625    2.0309 H         1 <0>         0.1175
     50 H18        -2.3467  -10.9522    0.2510 H         1 <0>         0.1115
     51 H19         0.2806  -15.5921   -1.4238 H         1 <0>         0.1029
     52 H20        -1.2647  -16.4296   -1.1617 H         1 <0>         0.1278
     53 H21         0.1563  -12.9053   -2.4730 H         1 <0>         0.0957
     54 H22        -1.2504  -12.3401   -3.4143 H         1 <0>         0.1259
     55 H23        -2.6463  -12.3261   -1.4512 H         1 <0>         0.1175
     56 H24        -1.1698  -11.4269   -1.0762 H         1 <0>         0.1052
@<TRIPOS>BOND
     1    1    6 ar
     2    1    2 ar
     3    1   34 1
     4    2    3 ar
     5    3    4 ar
     6    3   35 1
     7    4    5 ar
     8    5    6 ar
     9    5    7 1
    10    7   12 1
    11    7    8 1
    12    8    9 1
    13    8   36 1
    14    8   37 1
    15    9   10 1
    16    9   38 1
    17    9   39 1
    18   10   11 1
    19   10   13 am
    20   11   12 1
    21   11   40 1
    22   11   41 1
    23   12   42 1
    24   12   43 1
    25   13   14 2
    26   13   15 1
    27   15   16 1
    28   15   44 1
    29   15   45 1
    30   16   17 am
    31   16   46 1
    32   17   18 2
    33   17   19 1
    34   19   20 1
    35   19   47 1
    36   19   48 1
    37   20   21 1
    38   20   49 1
    39   20   50 1
    40   21   28 am
    41   21   22 1
    42   22   33 1
    43   22   23 2
    44   23   24 1
    45   23   30 1
    46   24   25 2
    47   24   26 am
    48   26   27 1
    49   26   28 am
    50   28   29 2
    51   30   31 1
    52   30   51 1
    53   30   52 1
    54   31   32 1
    55   32   33 1
    56   32   53 1
    57   32   54 1
    58   33   55 1
    59   33   56 1
@<TRIPOS>MOLECULE
CHEMBL604291
   49    52     0     0     0
SMALL
USER_CHARGES

@<TRIPOS>ATOM
      1 C1         -0.0310    1.3535    0.0308 C.ar      1 <0>        -0.0497
      2 C2          1.1431    2.0623    0.2047 C.ar      1 <0>        -0.1464
      3 C3          2.3597    1.4055    0.1841 C.ar      1 <0>         0.1548
      4 C4          2.3986    0.0214   -0.0134 C.ar      1 <0>        -0.1796
      5 C5          1.2073   -0.6855   -0.1881 C.ar      1 <0>        -0.0539
      6 C6          0.0018   -0.0164   -0.1649 C.ar      1 <0>        -0.0982
      7 C7         -1.2842   -0.7792   -0.3530 C.3       1 <0>        -0.0296
      8 C8         -1.6279   -0.8308   -1.8193 C.2       1 <0>         0.0173
      9 C9         -1.2686   -1.8862   -2.5355 C.2       1 <0>         0.0799
     10 N1         -1.5573   -1.9880   -3.8859 N.am      1 <0>        -0.6485
     11 H1         -1.2802   -2.7747   -4.3812 H         1 <0>         0.4231
     12 C10        -2.2237   -0.9964   -4.5163 C.2       1 <0>         0.5795
     13 O1         -2.4824   -1.0775   -5.7038 O.2       1 <0>        -0.4997
     14 C11        -2.6287    0.1774   -3.7411 C.2       1 <0>        -0.0595
     15 N2         -2.3213    0.2273   -2.3961 N.pl3     1 <0>        -0.3504
     16 C12        -2.7975    1.3925   -1.8930 C.2       1 <0>         0.0347
     17 C13        -3.4077    2.0859   -2.8877 C.2       1 <0>        -0.1065
     18 C14        -3.3022    1.3352   -4.0625 C.2       1 <0>        -0.0797
     19 Cl1        -4.1715    3.6370   -2.7318 Cl        1 <0>        -0.0250
     20 C15         3.6934   -0.6887   -0.0375 C.2       1 <0>         0.5655
     21 O2          4.5309   -0.4547    0.8121 O.2       1 <0>        -0.4955
     22 N3          3.9464   -1.5962   -1.0013 N.am      1 <0>        -0.6233
     23 C16         2.9673   -1.7663   -2.0937 C.3       1 <0>         0.0879
     24 C17         3.6748   -1.9236   -3.4519 C.3       1 <0>        -0.1598
     25 C18         4.8532   -0.9774   -3.5182 C.3       1 <0>        -0.0099
     26 N4          6.0588   -1.6771   -3.0802 N.4       1 <0>        -0.4872
     27 C19         6.2990   -1.6358   -1.6887 C.3       1 <0>        -0.0473
     28 C20         5.1718   -2.3654   -0.9318 C.3       1 <0>         0.0972
     29 F1          3.5070    2.0984    0.3536 F         1 <0>        -0.1207
     30 H2         -0.9789    1.8706    0.0522 H         1 <0>         0.1417
     31 H3          1.1100    3.1311    0.3567 H         1 <0>         0.1521
     32 H4          1.2300   -1.7543   -0.3414 H         1 <0>         0.1405
     33 H5         -1.1641   -1.7933    0.0280 H         1 <0>         0.1109
     34 H6         -2.0859   -0.2794    0.1907 H         1 <0>         0.1018
     35 H7         -0.7345   -2.6906   -2.0516 H         1 <0>         0.1769
     36 H8         -2.7062    1.7167   -0.8669 H         1 <0>         0.1808
     37 H9         -3.6863    1.6063   -5.0349 H         1 <0>         0.1645
     38 H10         2.3650   -2.6538   -1.8993 H         1 <0>         0.0907
     39 H11         2.3154   -0.8934   -2.1290 H         1 <0>         0.1060
     40 H12         4.0259   -2.9496   -3.5622 H         1 <0>         0.0947
     41 H13         2.9758   -1.6903   -4.2551 H         1 <0>         0.1267
     42 H14         4.9852   -0.6318   -4.5435 H         1 <0>         0.1418
     43 H15         4.6710   -0.1231   -2.8662 H         1 <0>         0.1294
     44 H16         5.9864   -2.6432   -3.3621 H         1 <0>         0.4229
     45 H17         7.2520   -2.1184   -1.4724 H         1 <0>         0.1504
     46 H18         6.3400   -0.5973   -1.3601 H         1 <0>         0.1339
     47 H19         5.4630   -2.4895    0.1113 H         1 <0>         0.1293
     48 H20         5.0103   -3.3454   -1.3808 H         1 <0>         0.1039
     49 H21         6.8523   -1.2703   -3.5524 H         1 <0>         0.4316
@<TRIPOS>BOND
     1    1    6 ar
     2    1    2 ar
     3    1   30 1
     4    2    3 ar
     5    2   31 1
     6    3    4 ar
     7    3   29 1
     8    4    5 ar
     9    4   20 1
    10    5    6 ar
    11    5   32 1
    12    6    7 1
    13    7    8 1
    14    7   33 1
    15    7   34 1
    16    8   15 1
    17    8    9 2
    18    9   10 1
    19    9   35 1
    20   10   11 1
    21   10   12 am
    22   12   13 2
    23   12   14 1
    24   14   18 2
    25   14   15 1
    26   15   16 1
    27   16   17 2
    28   16   36 1
    29   17   18 1
    30   17   19 1
    31   18   37 1
    32   20   21 2
    33   20   22 am
    34   22   28 1
    35   22   23 1
    36   23   24 1
    37   23   38 1
    38   23   39 1
    39   24   25 1
    40   24   40 1
    41   24   41 1
    42   25   26 1
    43   25   42 1
    44   25   43 1
    45   26   27 1
    46   26   44 1
    47   26   49 1
    48   27   28 1
    49   27   45 1
    50   27   46 1
    51   28   47 1
    52   28   48 1
@<TRIPOS>MOLECULE
CHEMBL363617
   38    41     0     0     0
SMALL
USER_CHARGES

@<TRIPOS>ATOM
      1 C1         -0.0165    1.3627    0.0095 C.ar      1 <0>        -0.0872
      2 C2          1.1654    2.0924    0.0022 C.ar      1 <0>        -0.1110
      3 C3          2.3861    1.4540   -0.0134 C.ar      1 <0>        -0.0546
      4 C4          2.4294    0.0605   -0.0213 C.ar      1 <0>        -0.1258
      5 C5          1.2244   -0.6786   -0.0133 C.ar      1 <0>        -0.0592
      6 C6          0.0021   -0.0041    0.0020 C.ar      1 <0>        -0.0972
      7 C7          1.3000   -2.1396   -0.0224 C.2       1 <0>         0.1408
      8 N1          2.4575   -2.7306   -0.0371 N.2       1 <0>        -0.2205
      9 N2          3.6626   -2.0276   -0.0452 N.am      1 <0>        -0.5340
     10 C8          3.6977   -0.6787   -0.0384 C.2       1 <0>         0.5285
     11 O1          4.7616   -0.0856   -0.0461 O.2       1 <0>        -0.5220
     12 C9          0.0356   -2.9595   -0.0143 C.3       1 <0>        -0.0181
     13 C10         0.3870   -4.4249   -0.0262 C.ar      1 <0>        -0.0564
     14 C11         0.5416   -5.0884   -1.2298 C.ar      1 <0>        -0.1084
     15 C12         0.8644   -6.4327   -1.2447 C.ar      1 <0>        -0.0954
     16 C13         1.0331   -7.1172   -0.0568 C.ar      1 <0>        -0.1364
     17 C14         0.8786   -6.4539    1.1528 C.ar      1 <0>         0.1289
     18 C15         0.5600   -5.1025    1.1646 C.ar      1 <0>        -0.1227
     19 N3          1.0492   -7.1458    2.3599 N.am      1 <0>        -0.5319
     20 C16         0.9190   -6.6090    3.5864 C.2       1 <0>         0.5392
     21 O2          0.6366   -5.4536    3.8295 O.2       1 <0>        -0.4404
     22 C17         1.1781   -7.6658    4.5890 C.2       1 <0>        -0.1349
     23 C18         1.4522   -8.7899    3.9060 C.2       1 <0>        -0.1341
     24 C19         1.3623   -8.4495    2.4689 C.2       1 <0>         0.5394
     25 O3          1.5430   -9.2160    1.5450 O.2       1 <0>        -0.4397
     26 H1         -0.9631    1.8823    0.0259 H         1 <0>         0.1368
     27 H2          1.1269    3.1717    0.0083 H         1 <0>         0.1375
     28 H3          3.3010    2.0277   -0.0197 H         1 <0>         0.1434
     29 H4         -0.9242   -0.5594    0.0075 H         1 <0>         0.1420
     30 H5         -0.5398   -2.7311    0.8829 H         1 <0>         0.1080
     31 H6         -0.5578   -2.7210   -0.8970 H         1 <0>         0.1096
     32 H7          0.4095   -4.5555   -2.1598 H         1 <0>         0.1262
     33 H8          0.9845   -6.9482   -2.1861 H         1 <0>         0.1320
     34 H9          1.2846   -8.1675   -0.0691 H         1 <0>         0.1511
     35 H10         0.4432   -4.5828    2.1041 H         1 <0>         0.1506
     36 H11         1.1525   -7.5549    5.6630 H         1 <0>         0.1899
     37 H12         1.6893   -9.7566    4.3252 H         1 <0>         0.1901
     38 H13         4.4973   -2.5216   -0.0562 H         1 <0>         0.4361
@<TRIPOS>BOND
     1    1    6 ar
     2    1    2 ar
     3    1   26 1
     4    2    3 ar
     5    2   27 1
     6    3    4 ar
     7    3   28 1
     8    4   10 1
     9    4    5 ar
    10    5    6 ar
    11    5    7 1
    12    6   29 1
    13    7    8 2
    14    7   12 1
    15    8    9 1
    16    9   10 am
    17    9   38 1
    18   10   11 2
    19   12   13 1
    20   12   30 1
    21   12   31 1
    22   13   18 ar
    23   13   14 ar
    24   14   15 ar
    25   14   32 1
    26   15   16 ar
    27   15   33 1
    28   16   17 ar
    29   16   34 1
    30   17   18 ar
    31   17   19 1
    32   18   35 1
    33   19   24 am
    34   19   20 am
    35   20   21 2
    36   20   22 1
    37   22   23 2
    38   22   36 1
    39   23   24 1
    40   23   37 1
    41   24   25 2
@<TRIPOS>MOLECULE
CHEMBL433965
   39    43     0     0     0
SMALL
USER_CHARGES

@<TRIPOS>ATOM
      1 C1         -0.0165    1.3623    0.0095 C.ar      1 <0>        -0.0808
      2 C2          1.1656    2.0925    0.0022 C.ar      1 <0>        -0.1247
      3 C3          2.3870    1.4553   -0.0129 C.ar      1 <0>        -0.0477
      4 C4          2.4318    0.0617   -0.0208 C.ar      1 <0>        -0.1395
      5 C5          1.2259   -0.6784   -0.0132 C.ar      1 <0>         0.0132
      6 C6          0.0021   -0.0041    0.0020 C.ar      1 <0>        -0.1150
      7 C7          1.3033   -2.1362   -0.0212 C.2       1 <0>        -0.1232
      8 C8          2.5106   -2.7535   -0.0355 C.2       1 <0>         0.1413
      9 N1          3.6827   -2.0213   -0.0433 N.am      1 <0>        -0.6231
     10 C9          3.6985   -0.6769   -0.0363 C.2       1 <0>         0.5568
     11 O1          4.7580   -0.0764   -0.0432 O.2       1 <0>        -0.5170
     12 C10         2.3211   -4.2235   -0.0405 C.ar      1 <0>         0.0254
     13 C11         3.2473   -5.2702   -0.0537 C.ar      1 <0>        -0.1455
     14 C12         2.8050   -6.5787   -0.0552 C.ar      1 <0>         0.2044
     15 C13         1.4473   -6.8574   -0.0436 C.ar      1 <0>        -0.7095
     16 C14         0.5262   -5.8244   -0.0306 C.ar      1 <0>         0.0387
     17 C15         0.9585   -4.5168   -0.0290 C.ar      1 <0>        -0.1063
     18 C16         0.2286   -3.1969   -0.0160 C.3       1 <0>        -0.0328
     19 S1          0.8929   -8.5299   -0.0462 S.o2      1 <0>         2.6841
     20 O2          1.6252   -9.2020    0.9693 O.2       1 <0>        -0.9073
     21 O3         -0.5273   -8.4870   -0.0597 O.2       1 <0>        -0.9149
     22 N2          1.3599   -9.1983   -1.4876 N.pl3     1 <0>        -0.8253
     23 C17         0.6391   -9.2050   -2.6512 C.2       1 <0>        -0.0384
     24 C18         1.3863   -9.8480   -3.5687 C.2       1 <0>         0.0035
     25 N3          2.5321  -10.2236   -2.9814 N.2       1 <0>        -0.4653
     26 C19         2.5255   -9.8334   -1.7361 C.2       1 <0>         0.2272
     27 F1          3.6994   -7.5912   -0.0683 F         1 <0>        -0.1143
     28 H1         -0.9631    1.8819    0.0259 H         1 <0>         0.1343
     29 H2          1.1265    3.1717    0.0079 H         1 <0>         0.1358
     30 H3          3.3013    2.0299   -0.0189 H         1 <0>         0.1427
     31 H4         -0.9240   -0.5597    0.0075 H         1 <0>         0.1372
     32 H5          4.3059   -5.0564   -0.0631 H         1 <0>         0.1532
     33 H6         -0.5313   -6.0438   -0.0220 H         1 <0>         0.1669
     34 H7         -0.3799   -3.1119    0.8844 H         1 <0>         0.1209
     35 H8         -0.3967   -3.1036   -0.9040 H         1 <0>         0.1207
     36 H9         -0.3407   -8.7772   -2.8040 H         1 <0>         0.1991
     37 H10         1.1111  -10.0294   -4.5972 H         1 <0>         0.1847
     38 H11         3.3195   -9.9941   -1.0218 H         1 <0>         0.2274
     39 H12         4.5282   -2.4966   -0.0532 H         1 <0>         0.4135
@<TRIPOS>BOND
     1    1    6 ar
     2    1    2 ar
     3    1   28 1
     4    2    3 ar
     5    2   29 1
     6    3    4 ar
     7    3   30 1
     8    4   10 1
     9    4    5 ar
    10    5    6 ar
    11    5    7 1
    12    6   31 1
    13    7   18 1
    14    7    8 2
    15    8    9 1
    16    8   12 1
    17    9   10 am
    18    9   39 1
    19   10   11 2
    20   12   17 ar
    21   12   13 ar
    22   13   14 ar
    23   13   32 1
    24   14   15 ar
    25   14   27 1
    26   15   16 ar
    27   15   19 1
    28   16   17 ar
    29   16   33 1
    30   17   18 1
    31   18   34 1
    32   18   35 1
    33   19   20 2
    34   19   21 2
    35   19   22 1
    36   22   26 1
    37   22   23 1
    38   23   24 2
    39   23   36 1
    40   24   25 1
    41   24   37 1
    42   25   26 2
    43   26   38 1
@<TRIPOS>MOLECULE
CHEMBL599596
   44    47     0     0     0
SMALL
USER_CHARGES

@<TRIPOS>ATOM
      1 C1         -0.0989    1.5060    0.1611 C.ar      1 <0>        -0.0551
      2 C2          1.1250    2.1433    0.0761 C.ar      1 <0>        -0.1491
      3 C3          2.2898    1.4017    0.0022 C.ar      1 <0>         0.1538
      4 C4          2.2257    0.0046    0.0138 C.ar      1 <0>        -0.1605
      5 C5          0.9849   -0.6296    0.1000 C.ar      1 <0>        -0.0587
      6 C6         -0.1679    0.1236    0.1730 C.ar      1 <0>        -0.1076
      7 C7         -1.5074   -0.5607    0.2665 C.3       1 <0>        -0.0279
      8 C8         -1.9958   -0.9002   -1.1181 C.2       1 <0>         0.0114
      9 C9         -1.2098   -0.6724   -2.1600 C.2       1 <0>         0.0858
     10 N1         -1.6059   -0.9645   -3.4548 N.am      1 <0>        -0.6437
     11 H1         -1.0056   -0.7855   -4.1954 H         1 <0>         0.4259
     12 C10        -2.8243   -1.4979   -3.6906 C.2       1 <0>         0.5826
     13 O1         -3.1804   -1.7581   -4.8262 O.2       1 <0>        -0.4967
     14 C11        -3.7067   -1.7568   -2.5530 C.2       1 <0>        -0.0399
     15 N2         -3.2621   -1.4527   -1.2801 N.pl3     1 <0>        -0.3426
     16 C12        -4.2377   -1.7821   -0.3982 C.2       1 <0>         0.0959
     17 C13        -5.2946   -2.2956   -1.0809 C.2       1 <0>        -0.0864
     18 C14        -4.9772   -2.2782   -2.4420 C.2       1 <0>        -0.0735
     19 Cl1        -6.7819   -2.8605   -0.3863 Cl        1 <0>        -0.0115
     20 Cl2        -4.1505   -1.5814    1.3239 Cl        1 <0>         0.0140
     21 C15         3.4644   -0.7958   -0.0651 C.2       1 <0>         0.5650
     22 O2          4.3611   -0.6087    0.7342 O.2       1 <0>        -0.5135
     23 N3          3.6008   -1.7337   -1.0234 N.am      1 <0>        -0.6087
     24 C16         2.4977   -2.0371   -1.9488 C.3       1 <0>         0.0649
     25 C17         3.0417   -1.9907   -3.3812 C.3       1 <0>         0.0452
     26 O3          4.1964   -2.8285   -3.4735 O.3       1 <0>        -0.3742
     27 C18         5.2864   -2.4161   -2.6455 C.3       1 <0>         0.0467
     28 C19         4.8593   -2.4803   -1.1790 C.3       1 <0>         0.0766
     29 F1          3.4857    2.0247   -0.0813 F         1 <0>        -0.1200
     30 H2         -1.0054    2.0897    0.2231 H         1 <0>         0.1451
     31 H3          1.1714    3.2222    0.0670 H         1 <0>         0.1505
     32 H4          0.9280   -1.7081    0.1091 H         1 <0>         0.1433
     33 H5         -1.4082   -1.4752    0.8512 H         1 <0>         0.1021
     34 H6         -2.2222    0.1045    0.7510 H         1 <0>         0.1031
     35 H7         -0.2314   -0.2460   -1.9949 H         1 <0>         0.1787
     36 H8         -5.6045   -2.6194   -3.2522 H         1 <0>         0.1739
     37 H9          2.1042   -3.0314   -1.7376 H         1 <0>         0.0856
     38 H10         1.7066   -1.2963   -1.8324 H         1 <0>         0.0928
     39 H11         2.2777   -2.3463   -4.0725 H         1 <0>         0.1094
     40 H12         3.3141   -0.9661   -3.6342 H         1 <0>         0.0586
     41 H13         6.1373   -3.0778   -2.8074 H         1 <0>         0.1128
     42 H14         5.5670   -1.3931   -2.8958 H         1 <0>         0.0583
     43 H15         5.6313   -2.0329   -0.5530 H         1 <0>         0.1055
     44 H16         4.7076   -3.5200   -0.8889 H         1 <0>         0.0821
@<TRIPOS>BOND
     1    1    6 ar
     2    1    2 ar
     3    1   30 1
     4    2    3 ar
     5    2   31 1
     6    3    4 ar
     7    3   29 1
     8    4    5 ar
     9    4   21 1
    10    5    6 ar
    11    5   32 1
    12    6    7 1
    13    7    8 1
    14    7   33 1
    15    7   34 1
    16    8   15 1
    17    8    9 2
    18    9   10 1
    19    9   35 1
    20   10   11 1
    21   10   12 am
    22   12   13 2
    23   12   14 1
    24   14   18 2
    25   14   15 1
    26   15   16 1
    27   16   17 2
    28   16   20 1
    29   17   18 1
    30   17   19 1
    31   18   36 1
    32   21   22 2
    33   21   23 am
    34   23   28 1
    35   23   24 1
    36   24   25 1
    37   24   37 1
    38   24   38 1
    39   25   26 1
    40   25   39 1
    41   25   40 1
    42   26   27 1
    43   27   28 1
    44   27   41 1
    45   27   42 1
    46   28   43 1
    47   28   44 1
@<TRIPOS>MOLECULE
CHEMBL569363
   42    45     0     0     0
SMALL
USER_CHARGES

@<TRIPOS>ATOM
      1 C1         -0.0170    1.3951   -0.0416 C.ar      1 <0>        -0.0382
      2 C2          1.1502    2.1021   -0.0253 C.ar      1 <0>        -0.1409
      3 C3          2.3750    1.4376   -0.0252 C.ar      1 <0>         0.1244
      4 C4          2.4055    0.0280   -0.0433 C.ar      1 <0>        -0.1099
      5 C5          3.8227   -0.3460   -0.0386 C.2       1 <0>        -0.1595
      6 C6          4.5279    0.7954   -0.0189 C.2       1 <0>         0.0564
      7 N1          3.6794    1.8691   -0.0106 N.pl3     1 <0>        -0.5904
      8 H1          3.9579    2.7982    0.0031 H         1 <0>         0.4194
      9 C7          4.3812   -1.7456   -0.0524 C.3       1 <0>        -0.0465
     10 C8          4.4664   -2.2748    1.3806 C.3       1 <0>         0.0616
     11 N2          5.0109   -3.6391    1.3671 N.3       1 <0>        -0.6868
     12 C9          5.1073   -4.1809    2.7292 C.3       1 <0>         0.1380
     13 C10         5.6686   -5.5784    2.6753 C.2       1 <0>        -0.2363
     14 C11         4.9522   -6.7199    2.5527 C.2       1 <0>         0.0633
     15 N3          5.8215   -7.7520    2.5434 N.pl3     1 <0>        -0.4770
     16 H2          5.5914   -8.6912    2.4663 H         1 <0>         0.4399
     17 N4          7.1148   -7.2276    2.6642 N.2       1 <0>        -0.2965
     18 C12         7.0224   -5.9245    2.7371 C.2       1 <0>         0.0700
     19 C13         1.2147   -0.6890   -0.0600 C.ar      1 <0>         0.0083
     20 C14         0.0020   -0.0035   -0.0581 C.ar      1 <0>        -0.1691
     21 C15        -1.2534   -0.7820   -0.0721 C.2       1 <0>         0.5703
     22 O1         -2.3011   -0.2540   -0.3906 O.2       1 <0>        -0.5380
     23 N5         -1.2233   -2.0849    0.2721 N.am      1 <0>        -0.7291
     24 C16         0.0158   -2.7224    0.7095 C.3       1 <0>         0.1152
     25 C17         1.2102   -2.1940   -0.0812 C.3       1 <0>        -0.1090
     26 H3         -0.9615    1.9188   -0.0373 H         1 <0>         0.1380
     27 H4          1.1246    3.1818   -0.0128 H         1 <0>         0.1276
     28 H5          5.6061    0.8575   -0.0104 H         1 <0>         0.1738
     29 H6          3.7287   -2.3914   -0.6400 H         1 <0>         0.0712
     30 H7          5.3769   -1.7350   -0.4957 H         1 <0>         0.0818
     31 H8          5.1189   -1.6290    1.9682 H         1 <0>         0.0743
     32 H9          3.4707   -2.2853    1.8239 H         1 <0>         0.0313
     33 H10         4.4592   -4.2428    0.7761 H         1 <0>         0.3391
     34 H11         5.7643   -3.5483    3.3262 H         1 <0>         0.0802
     35 H12         4.1160   -4.2046    3.1818 H         1 <0>         0.0352
     36 H13         3.8774   -6.7919    2.4761 H         1 <0>         0.1736
     37 H14         7.8485   -5.2354    2.8319 H         1 <0>         0.1834
     38 H15        -2.0390   -2.6082    0.2289 H         1 <0>         0.4049
     39 H16         0.1693   -2.5177    1.7691 H         1 <0>         0.0665
     40 H17        -0.0637   -3.7993    0.5615 H         1 <0>         0.0891
     41 H18         1.1431   -2.5413   -1.1122 H         1 <0>         0.0898
     42 H19         2.1330   -2.5651    0.3649 H         1 <0>         0.1005
@<TRIPOS>BOND
     1    1   20 ar
     2    1    2 ar
     3    1   26 1
     4    2    3 ar
     5    2   27 1
     6    3    7 1
     7    3    4 ar
     8    4    5 1
     9    4   19 ar
    10    5    6 2
    11    5    9 1
    12    6    7 1
    13    6   28 1
    14    7    8 1
    15    9   10 1
    16    9   29 1
    17    9   30 1
    18   10   11 1
    19   10   31 1
    20   10   32 1
    21   11   12 1
    22   11   33 1
    23   12   13 1
    24   12   34 1
    25   12   35 1
    26   13   18 1
    27   13   14 2
    28   14   15 1
    29   14   36 1
    30   15   16 1
    31   15   17 1
    32   17   18 2
    33   18   37 1
    34   19   25 1
    35   19   20 ar
    36   20   21 1
    37   21   22 2
    38   21   23 am
    39   23   24 1
    40   23   38 1
    41   24   25 1
    42   24   39 1
    43   24   40 1
    44   25   41 1
    45   25   42 1
@<TRIPOS>MOLECULE
CHEMBL569363__1
   43    46     0     0     0
SMALL
USER_CHARGES

@<TRIPOS>ATOM
      1 C1         -0.0170    1.3951   -0.0416 C.ar      1 <0>        -0.0355
      2 C2          1.1502    2.1021   -0.0253 C.ar      1 <0>        -0.1303
      3 C3          2.3750    1.4376   -0.0252 C.ar      1 <0>         0.1236
      4 C4          2.4055    0.0280   -0.0433 C.ar      1 <0>        -0.1052
      5 C5          3.8227   -0.3460   -0.0386 C.2       1 <0>        -0.1951
      6 C6          4.5279    0.7954   -0.0189 C.2       1 <0>         0.0870
      7 N1          3.6794    1.8691   -0.0106 N.pl3     1 <0>        -0.5841
      8 H1          3.9579    2.7982    0.0031 H         1 <0>         0.4262
      9 C7          4.3812   -1.7456   -0.0524 C.3       1 <0>        -0.0660
     10 C8          4.4664   -2.2748    1.3806 C.3       1 <0>        -0.0133
     11 N2          5.0109   -3.6391    1.3671 N.4       1 <0>        -0.5113
     12 C9          5.0927   -4.1473    2.7430 C.3       1 <0>         0.0880
     13 C10         5.6513   -5.5469    2.7292 C.2       1 <0>        -0.3253
     14 C11         4.9336   -6.6895    2.6278 C.2       1 <0>         0.1126
     15 N3          5.8005   -7.7234    2.6525 N.pl3     1 <0>        -0.4551
     16 H2          5.5691   -8.6637    2.5964 H         1 <0>         0.4537
     17 N4          7.0938   -7.1987    2.7731 N.2       1 <0>        -0.2684
     18 C12         7.0036   -5.8941    2.8129 C.2       1 <0>         0.0735
     19 C13         1.2147   -0.6890   -0.0600 C.ar      1 <0>        -0.0094
     20 C14         0.0020   -0.0035   -0.0581 C.ar      1 <0>        -0.1509
     21 C15        -1.2534   -0.7820   -0.0721 C.2       1 <0>         0.5656
     22 O1         -2.3011   -0.2540   -0.3906 O.2       1 <0>        -0.5234
     23 N5         -1.2233   -2.0849    0.2721 N.am      1 <0>        -0.7300
     24 C16         0.0158   -2.7224    0.7095 C.3       1 <0>         0.1137
     25 C17         1.2102   -2.1940   -0.0812 C.3       1 <0>        -0.1009
     26 H3         -0.9615    1.9188   -0.0373 H         1 <0>         0.1441
     27 H4          1.1246    3.1818   -0.0128 H         1 <0>         0.1339
     28 H5          5.6061    0.8575   -0.0104 H         1 <0>         0.1767
     29 H6          3.7287   -2.3914   -0.6400 H         1 <0>         0.0941
     30 H7          5.3769   -1.7350   -0.4957 H         1 <0>         0.0955
     31 H8          5.1189   -1.6290    1.9682 H         1 <0>         0.1352
     32 H9          3.4707   -2.2853    1.8239 H         1 <0>         0.1320
     33 H10         4.4069   -4.2369    0.8232 H         1 <0>         0.4238
     34 H11         5.7452   -3.5015    3.3306 H         1 <0>         0.1379
     35 H12         4.0970   -4.1578    3.1863 H         1 <0>         0.1345
     36 H13         3.8593   -6.7612    2.5424 H         1 <0>         0.1897
     37 H14         7.8303   -5.2045    2.8988 H         1 <0>         0.1941
     38 H15        -2.0390   -2.6082    0.2288 H         1 <0>         0.4095
     39 H16         0.1693   -2.5177    1.7691 H         1 <0>         0.0662
     40 H17        -0.0637   -3.7993    0.5615 H         1 <0>         0.0900
     41 H18         1.1431   -2.5413   -1.1122 H         1 <0>         0.0930
     42 H19         2.1330   -2.5651    0.3649 H         1 <0>         0.0822
     43 H20         5.9326   -3.6294    0.9568 H         1 <0>         0.4279
@<TRIPOS>BOND
     1    1   20 ar
     2    1    2 ar
     3    1   26 1
     4    2    3 ar
     5    2   27 1
     6    3    7 1
     7    3    4 ar
     8    4    5 1
     9    4   19 ar
    10    5    6 2
    11    5    9 1
    12    6    7 1
    13    6   28 1
    14    7    8 1
    15    9   10 1
    16    9   29 1
    17    9   30 1
    18   10   11 1
    19   10   31 1
    20   10   32 1
    21   11   12 1
    22   11   33 1
    23   11   43 1
    24   12   13 1
    25   12   34 1
    26   12   35 1
    27   13   18 1
    28   13   14 2
    29   14   15 1
    30   14   36 1
    31   15   16 1
    32   15   17 1
    33   17   18 2
    34   18   37 1
    35   19   25 1
    36   19   20 ar
    37   20   21 1
    38   21   22 2
    39   21   23 am
    40   23   24 1
    41   23   38 1
    42   24   25 1
    43   24   39 1
    44   24   40 1
    45   25   41 1
    46   25   42 1
@<TRIPOS>MOLECULE
CHEMBL460474
   51    54     0     0     0
SMALL
USER_CHARGES

@<TRIPOS>ATOM
      1 C1         -0.0167    1.3769    0.0096 C.ar      1 <0>        -0.1018
      2 C2          1.1632    2.0980    0.0022 C.ar      1 <0>        -0.0829
      3 C3          2.3901    1.4397   -0.0135 C.ar      1 <0>        -0.0846
      4 C4          2.4203    0.0291   -0.0214 C.ar      1 <0>         0.0982
      5 C5          1.2109   -0.6850   -0.0132 C.ar      1 <0>         0.0423
      6 C6          0.0021   -0.0041    0.0020 C.ar      1 <0>        -0.0835
      7 N1          1.5594   -2.0218   -0.0239 N.pl3     1 <0>        -0.5949
      8 H1          0.9495   -2.7761   -0.0221 H         1 <0>         0.4210
      9 C7          2.9166   -2.0818   -0.0377 C.2       1 <0>         0.2688
     10 N2          3.4163   -0.8785   -0.0362 N.2       1 <0>        -0.4488
     11 C8          3.7253   -3.3533   -0.0521 C.3       1 <0>        -0.0139
     12 C9          2.9975   -4.4092   -0.9212 C.3       1 <0>        -0.1359
     13 C10         3.9650   -5.5124   -1.2575 C.3       1 <0>        -0.1395
     14 C11         3.9454   -6.6748   -0.2487 C.3       1 <0>        -0.0097
     15 N3          3.8834   -6.2331    1.1611 N.4       1 <0>        -0.3761
     16 C12         4.7468   -5.1044    1.4104 C.3       1 <0>        -0.0141
     17 C13         3.8946   -3.8284    1.3155 C.3       1 <0>        -0.1409
     18 C14         4.2894   -7.3465    2.0291 C.3       1 <0>         0.0133
     19 C15         4.1121   -6.9643    3.5196 C.3       1 <0>        -0.1410
     20 C16         3.9814   -8.3432    4.2128 C.3       1 <0>        -0.1237
     21 C17         3.1535   -9.1877    3.2222 C.3       1 <0>        -0.1278
     22 C18         3.3494   -8.5540    1.8338 C.3       1 <0>        -0.1394
     23 C19         3.6468    2.2101   -0.0224 C.2       1 <0>         0.5575
     24 O1          4.7155    1.6299   -0.0361 O.2       1 <0>        -0.5146
     25 N4          3.6115    3.5573   -0.0152 N.am      1 <0>        -0.8519
     26 H2         -0.9621    1.8987    0.0260 H         1 <0>         0.1443
     27 H3          1.1329    3.1775    0.0083 H         1 <0>         0.1396
     28 H4         -0.9266   -0.5554    0.0083 H         1 <0>         0.1317
     29 H5          4.7051   -3.1493   -0.4839 H         1 <0>         0.1249
     30 H6          2.1538   -4.8199   -0.3666 H         1 <0>         0.0702
     31 H7          2.6411   -3.9433   -1.8399 H         1 <0>         0.0998
     32 H8          3.7195   -5.9030   -2.2450 H         1 <0>         0.1141
     33 H9          4.9717   -5.0957   -1.2904 H         1 <0>         0.0939
     34 H10         3.0785   -7.3022   -0.4562 H         1 <0>         0.1274
     35 H11         4.8463   -7.2725   -0.3877 H         1 <0>         0.1305
     36 H12         5.1807   -5.1849    2.4071 H         1 <0>         0.1401
     37 H13         5.5400   -5.0746    0.6634 H         1 <0>         0.1383
     38 H14         4.3719   -3.0438    1.9025 H         1 <0>         0.1207
     39 H15         2.9114   -4.0314    1.7402 H         1 <0>         0.0818
     40 H16         5.3221   -7.6302    1.8262 H         1 <0>         0.1452
     41 H17         4.9869   -6.4283    3.8877 H         1 <0>         0.0967
     42 H18         3.2074   -6.3732    3.6618 H         1 <0>         0.0884
     43 H19         4.9646   -8.7885    4.3649 H         1 <0>         0.0824
     44 H20         3.4553   -8.2445    5.1624 H         1 <0>         0.0880
     45 H21         3.5134  -10.2166    3.2172 H         1 <0>         0.0837
     46 H22         2.0997   -9.1617    3.4992 H         1 <0>         0.0798
     47 H23         2.3906   -8.2204    1.4370 H         1 <0>         0.0819
     48 H24         3.8043   -9.2753    1.1549 H         1 <0>         0.0959
     49 H25         2.7590    4.0201   -0.0042 H         1 <0>         0.4003
     50 H26         4.4385    4.0642   -0.0210 H         1 <0>         0.4084
     51 H27         2.9335   -5.9752    1.3828 H         1 <0>         0.4158
@<TRIPOS>BOND
     1    1    6 ar
     2    1    2 ar
     3    1   26 1
     4    2    3 ar
     5    2   27 1
     6    3    4 ar
     7    3   23 1
     8    4   10 1
     9    4    5 ar
    10    5    6 ar
    11    5    7 1
    12    6   28 1
    13    7    8 1
    14    7    9 1
    15    9   10 2
    16    9   11 1
    17   11   17 1
    18   11   12 1
    19   11   29 1
    20   12   13 1
    21   12   30 1
    22   12   31 1
    23   13   14 1
    24   13   32 1
    25   13   33 1
    26   14   15 1
    27   14   34 1
    28   14   35 1
    29   15   16 1
    30   15   18 1
    31   15   51 1
    32   16   17 1
    33   16   36 1
    34   16   37 1
    35   17   38 1
    36   17   39 1
    37   18   22 1
    38   18   19 1
    39   18   40 1
    40   19   20 1
    41   19   41 1
    42   19   42 1
    43   20   21 1
    44   20   43 1
    45   20   44 1
    46   21   22 1
    47   21   45 1
    48   21   46 1
    49   22   47 1
    50   22   48 1
    51   23   24 2
    52   23   25 am
    53   25   49 1
    54   25   50 1
@<TRIPOS>MOLECULE
CHEMBL460474__1
   51    54     0     0     0
SMALL
USER_CHARGES

@<TRIPOS>ATOM
      1 C1         -0.0167    1.3769    0.0096 C.ar      1 <0>        -0.1018
      2 C2          1.1632    2.0980    0.0022 C.ar      1 <0>        -0.0823
      3 C3          2.3901    1.4397   -0.0135 C.ar      1 <0>        -0.0859
      4 C4          2.4203    0.0291   -0.0214 C.ar      1 <0>         0.0980
      5 C5          1.2109   -0.6850   -0.0132 C.ar      1 <0>         0.0433
      6 C6          0.0021   -0.0041    0.0020 C.ar      1 <0>        -0.0823
      7 N1          1.5594   -2.0218   -0.0239 N.pl3     1 <0>        -0.5929
      8 H1          0.9495   -2.7761   -0.0221 H         1 <0>         0.4237
      9 C7          2.9166   -2.0818   -0.0377 C.2       1 <0>         0.2693
     10 N2          3.4163   -0.8785   -0.0362 N.2       1 <0>        -0.4510
     11 C8          3.7253   -3.3533   -0.0521 C.3       1 <0>        -0.0191
     12 C9          3.0549   -4.3629    0.8426 C.3       1 <0>        -0.1391
     13 C10         4.1329   -5.2671    1.4875 C.3       1 <0>        -0.1502
     14 C11         4.6527   -6.2338    0.5249 C.3       1 <0>        -0.0088
     15 N3          5.3228   -5.6161   -0.6326 N.4       1 <0>        -0.3770
     16 C12         4.3069   -5.3030   -1.6114 C.3       1 <0>        -0.0188
     17 C13         3.8689   -3.8317   -1.5102 C.3       1 <0>        -0.1399
     18 C14         6.2943   -6.5569   -1.2064 C.3       1 <0>         0.0218
     19 C15         7.3957   -6.8744   -0.1739 C.3       1 <0>        -0.1429
     20 C16         8.6888   -6.9835   -1.0194 C.3       1 <0>        -0.1243
     21 C17         8.5012   -5.8670   -2.0765 C.3       1 <0>        -0.1306
     22 C18         6.9972   -5.9164   -2.4161 C.3       1 <0>        -0.1465
     23 C19         3.6468    2.2101   -0.0224 C.2       1 <0>         0.5586
     24 O1          4.7155    1.6299   -0.0361 O.2       1 <0>        -0.5167
     25 N4          3.6115    3.5573   -0.0152 N.am      1 <0>        -0.8518
     26 H2         -0.9621    1.8987    0.0260 H         1 <0>         0.1447
     27 H3          1.1329    3.1775    0.0083 H         1 <0>         0.1396
     28 H4         -0.9266   -0.5554    0.0083 H         1 <0>         0.1327
     29 H5          4.7176   -3.1405    0.3456 H         1 <0>         0.1093
     30 H6          2.4993   -3.8446    1.6241 H         1 <0>         0.0957
     31 H7          2.3715   -4.9745    0.2535 H         1 <0>         0.0859
     32 H8          4.9524   -4.6452    1.8478 H         1 <0>         0.0927
     33 H9          3.6939   -5.8018    2.3298 H         1 <0>         0.1230
     34 H10         5.3648   -6.8835    1.0337 H         1 <0>         0.1308
     35 H11         3.8254   -6.8445    0.1633 H         1 <0>         0.1292
     36 H12         4.7032   -5.4897   -2.6095 H         1 <0>         0.1357
     37 H13         3.4419   -5.9452   -1.4460 H         1 <0>         0.1311
     38 H14         2.9102   -3.7143   -2.0152 H         1 <0>         0.1083
     39 H15         4.6083   -3.2089   -2.0138 H         1 <0>         0.1024
     40 H16         5.7904   -7.4745   -1.5101 H         1 <0>         0.1414
     41 H17         7.4819   -6.0664    0.5526 H         1 <0>         0.0876
     42 H18         7.1872   -7.8193    0.3279 H         1 <0>         0.0979
     43 H19         9.5689   -6.7906   -0.4059 H         1 <0>         0.0887
     44 H20         8.7565   -7.9607   -1.4975 H         1 <0>         0.0834
     45 H21         8.7660   -4.8963   -1.6573 H         1 <0>         0.0787
     46 H22         9.0996   -6.0767   -2.9632 H         1 <0>         0.0876
     47 H23         6.8352   -6.5236   -3.3067 H         1 <0>         0.1029
     48 H24         6.6176   -4.9074   -2.5774 H         1 <0>         0.0865
     49 H25         2.7590    4.0201   -0.0042 H         1 <0>         0.4006
     50 H26         4.4385    4.0642   -0.0210 H         1 <0>         0.4082
     51 H27         5.7928   -4.7708   -0.3449 H         1 <0>         0.4228
@<TRIPOS>BOND
     1    1    6 ar
     2    1    2 ar
     3    1   26 1
     4    2    3 ar
     5    2   27 1
     6    3    4 ar
     7    3   23 1
     8    4   10 1
     9    4    5 ar
    10    5    6 ar
    11    5    7 1
    12    6   28 1
    13    7    8 1
    14    7    9 1
    15    9   10 2
    16    9   11 1
    17   11   17 1
    18   11   12 1
    19   11   29 1
    20   12   13 1
    21   12   30 1
    22   12   31 1
    23   13   14 1
    24   13   32 1
    25   13   33 1
    26   14   15 1
    27   14   34 1
    28   14   35 1
    29   15   16 1
    30   15   18 1
    31   15   51 1
    32   16   17 1
    33   16   36 1
    34   16   37 1
    35   17   38 1
    36   17   39 1
    37   18   22 1
    38   18   19 1
    39   18   40 1
    40   19   20 1
    41   19   41 1
    42   19   42 1
    43   20   21 1
    44   20   43 1
    45   20   44 1
    46   21   22 1
    47   21   45 1
    48   21   46 1
    49   22   47 1
    50   22   48 1
    51   23   24 2
    52   23   25 am
    53   25   49 1
    54   25   50 1
@<TRIPOS>MOLECULE
CHEMBL459853
   45    48     0     0     0
SMALL
USER_CHARGES

@<TRIPOS>ATOM
      1 C1         -0.0437    1.3567   -0.0683 C.ar      1 <0>        -0.1141
      2 C2          1.1330    2.0831   -0.0623 C.ar      1 <0>        -0.0862
      3 C3          2.3629    1.4303   -0.0598 C.ar      1 <0>        -0.0909
      4 C4          2.3994    0.0199   -0.0629 C.ar      1 <0>         0.1037
      5 C5          1.1932   -0.6996   -0.0685 C.ar      1 <0>         0.0348
      6 C6         -0.0187   -0.0241   -0.0714 C.ar      1 <0>        -0.0789
      7 N1          1.5478   -2.0350   -0.0705 N.pl3     1 <0>        -0.5937
      8 H1          0.9413   -2.7920   -0.0745 H         1 <0>         0.4232
      9 C7          2.9053   -2.0889   -0.0662 C.2       1 <0>         0.2956
     10 N2          3.3996   -0.8833   -0.0618 N.2       1 <0>        -0.4637
     11 C8          3.7198   -3.3568   -0.0660 C.3       1 <0>        -0.0096
     12 C9          3.0044   -4.4225   -0.8994 C.3       1 <0>        -0.1363
     13 C10         3.8518   -5.6984   -0.9256 C.3       1 <0>         0.1187
     14 N3          4.1373   -6.1049    0.4572 N.pl3     1 <0>        -0.6206
     15 C11         4.7422   -5.1261    1.3707 C.3       1 <0>         0.1177
     16 C12         3.8849   -3.8565    1.3711 C.3       1 <0>        -0.1275
     17 C13         3.8398   -7.3927    0.8935 C.ar      1 <0>         0.2511
     18 C14         3.1622   -8.2713    0.0533 C.ar      1 <0>        -0.2054
     19 C15         2.8664   -9.5456    0.4816 C.ar      1 <0>        -0.0166
     20 C16         3.2476   -9.9569    1.7623 C.ar      1 <0>        -0.0973
     21 C17         3.9281   -9.0718    2.6037 C.ar      1 <0>        -0.0161
     22 C18         4.2257   -7.8008    2.1669 C.ar      1 <0>        -0.2038
     23 C19         2.9411  -11.2817    2.2114 C.1       1 <0>         0.2587
     24 N4          2.6980  -12.3327    2.5677 N.1       1 <0>        -0.4321
     25 C20         3.6162    2.2063   -0.0544 C.2       1 <0>         0.5575
     26 O1          4.6875    1.6309   -0.0522 O.2       1 <0>        -0.5114
     27 N5          3.5747    3.5534   -0.0519 N.am      1 <0>        -0.8554
     28 H2         -0.9916    1.8743   -0.0660 H         1 <0>         0.1394
     29 H3          1.0978    3.1625   -0.0599 H         1 <0>         0.1349
     30 H4         -0.9449   -0.5796   -0.0757 H         1 <0>         0.1291
     31 H5          4.7013   -3.1579   -0.4963 H         1 <0>         0.1138
     32 H6          2.0329   -4.6399   -0.4555 H         1 <0>         0.0693
     33 H7          2.8663   -4.0565   -1.9168 H         1 <0>         0.0843
     34 H8          3.3028   -6.4913   -1.4336 H         1 <0>         0.0935
     35 H9          4.7874   -5.5050   -1.4502 H         1 <0>         0.0747
     36 H10         4.7808   -5.5413    2.3778 H         1 <0>         0.0932
     37 H11         5.7505   -4.8860    1.0333 H         1 <0>         0.0746
     38 H12         4.3735   -3.0877    1.9697 H         1 <0>         0.0881
     39 H13         2.9051   -4.0793    1.7936 H         1 <0>         0.0701
     40 H14         2.8678   -7.9528   -0.9358 H         1 <0>         0.1332
     41 H15         2.3403  -10.2268   -0.1708 H         1 <0>         0.1311
     42 H16         4.2240   -9.3864    3.5936 H         1 <0>         0.1315
     43 H17         4.7556   -7.1181    2.8146 H         1 <0>         0.1339
     44 H18         2.7201    4.0123   -0.0536 H         1 <0>         0.3985
     45 H19         4.3994    4.0640   -0.0483 H         1 <0>         0.4054
@<TRIPOS>BOND
     1    1    6 ar
     2    1    2 ar
     3    1   28 1
     4    2    3 ar
     5    2   29 1
     6    3    4 ar
     7    3   25 1
     8    4   10 1
     9    4    5 ar
    10    5    6 ar
    11    5    7 1
    12    6   30 1
    13    7    8 1
    14    7    9 1
    15    9   10 2
    16    9   11 1
    17   11   16 1
    18   11   12 1
    19   11   31 1
    20   12   13 1
    21   12   32 1
    22   12   33 1
    23   13   14 1
    24   13   34 1
    25   13   35 1
    26   14   15 1
    27   14   17 1
    28   15   16 1
    29   15   36 1
    30   15   37 1
    31   16   38 1
    32   16   39 1
    33   17   22 ar
    34   17   18 ar
    35   18   19 ar
    36   18   40 1
    37   19   20 ar
    38   19   41 1
    39   20   21 ar
    40   20   23 1
    41   21   22 ar
    42   21   42 1
    43   22   43 1
    44   23   24 3
    45   25   26 2
    46   25   27 am
    47   27   44 1
    48   27   45 1
@<TRIPOS>MOLECULE
CHEMBL569195
   34    37     0     0     0
SMALL
USER_CHARGES

@<TRIPOS>ATOM
      1 C1         -0.0167    1.3774    0.0096 C.ar      1 <0>        -0.1097
      2 C2          1.1628    2.0989    0.0022 C.ar      1 <0>        -0.0849
      3 C3          2.3902    1.4413   -0.0134 C.ar      1 <0>        -0.0883
      4 C4          2.4211    0.0292   -0.0213 C.ar      1 <0>         0.1040
      5 C5          1.2101   -0.6854   -0.0131 C.ar      1 <0>         0.0439
      6 C6          0.0021   -0.0041    0.0020 C.ar      1 <0>        -0.0795
      7 N1          1.5538   -2.0240   -0.0244 N.pl3     1 <0>        -0.5907
      8 H1          0.9419   -2.7766   -0.0230 H         1 <0>         0.4266
      9 C7          2.9201   -2.0867   -0.0387 C.2       1 <0>         0.3211
     10 N2          3.4186   -0.8720   -0.0367 N.2       1 <0>        -0.4469
     11 C8          3.7144   -3.3322   -0.0540 C.ar      1 <0>        -0.0044
     12 C9          3.0699   -4.5719   -0.0605 C.ar      1 <0>        -0.1020
     13 C10         3.8097   -5.7320   -0.0752 C.ar      1 <0>        -0.0635
     14 C11         5.2055   -5.6704   -0.0833 C.ar      1 <0>        -0.0118
     15 C12         5.8501   -4.4308   -0.0768 C.ar      1 <0>        -0.0799
     16 C13         5.1102   -3.2706   -0.0679 C.ar      1 <0>        -0.0664
     17 C14         5.9998   -6.9159   -0.0982 C.2       1 <0>         0.2080
     18 N3          5.5273   -8.1407   -0.1108 N.2       1 <0>        -0.2722
     19 N4          6.5081   -8.9734   -0.1215 N.2       1 <0>        -0.2876
     20 C15         7.6360   -8.3183   -0.1160 C.2       1 <0>         0.1522
     21 O1          7.3450   -7.0064   -0.1071 O.3       1 <0>        -0.2207
     22 C16         3.6460    2.2121   -0.0223 C.2       1 <0>         0.5577
     23 O2          4.7151    1.6325   -0.0359 O.2       1 <0>        -0.5112
     24 N5          3.6099    3.5593   -0.0152 N.am      1 <0>        -0.8547
     25 H2         -0.9622    1.8990    0.0260 H         1 <0>         0.1412
     26 H3          1.1319    3.1785    0.0083 H         1 <0>         0.1365
     27 H4         -0.9268   -0.5551    0.0079 H         1 <0>         0.1317
     28 H5          1.9909   -4.6195   -0.0535 H         1 <0>         0.1338
     29 H6          3.3115   -6.6902   -0.0802 H         1 <0>         0.1487
     30 H7          6.9291   -4.3832   -0.0831 H         1 <0>         0.1430
     31 H8          5.6084   -2.3124   -0.0670 H         1 <0>         0.1545
     32 H9          8.6252   -8.7519   -0.1223 H         1 <0>         0.2667
     33 H10         2.7572    4.0216   -0.0043 H         1 <0>         0.3988
     34 H11         4.4366    4.0667   -0.0210 H         1 <0>         0.4059
@<TRIPOS>BOND
     1    1    6 ar
     2    1    2 ar
     3    1   25 1
     4    2    3 ar
     5    2   26 1
     6    3    4 ar
     7    3   22 1
     8    4   10 1
     9    4    5 ar
    10    5    6 ar
    11    5    7 1
    12    6   27 1
    13    7    8 1
    14    7    9 1
    15    9   10 2
    16    9   11 1
    17   11   16 ar
    18   11   12 ar
    19   12   13 ar
    20   12   28 1
    21   13   14 ar
    22   13   29 1
    23   14   15 ar
    24   14   17 1
    25   15   16 ar
    26   15   30 1
    27   16   31 1
    28   17   21 1
    29   17   18 2
    30   18   19 1
    31   19   20 2
    32   20   21 1
    33   20   32 1
    34   22   23 2
    35   22   24 am
    36   24   33 1
    37   24   34 1
@<TRIPOS>MOLECULE
CHEMBL579023
   37    40     0     0     0
SMALL
USER_CHARGES

@<TRIPOS>ATOM
      1 C1         -0.0184    1.5028    0.0103 C.3       1 <0>        -0.0732
      2 C2          0.0021   -0.0041    0.0020 C.2       1 <0>         0.2556
      3 N1          0.0075   -0.7719   -1.0895 N.2       1 <0>        -0.5339
      4 C3          0.0268   -2.0405   -0.7462 C.2       1 <0>         0.3372
      5 O1          0.0342   -2.1075    0.5966 O.3       1 <0>        -0.1020
      6 N2          0.0229   -0.7653    1.0595 N.2       1 <0>        -0.3401
      7 C4          0.0384   -3.1909   -1.6732 C.ar      1 <0>        -0.0349
      8 C5          0.0347   -2.9758   -3.0536 C.ar      1 <0>        -0.0499
      9 C6          0.0459   -4.0477   -3.9171 C.ar      1 <0>        -0.0721
     10 C7          0.0606   -5.3504   -3.4133 C.ar      1 <0>         0.0057
     11 C8          0.0639   -5.5656   -2.0330 C.ar      1 <0>        -0.1072
     12 C9          0.0589   -4.4938   -1.1694 C.ar      1 <0>        -0.0675
     13 C10         0.0722   -6.5013   -4.3406 C.2       1 <0>         0.3182
     14 N3          0.0814   -7.8159   -3.9639 N.pl3     1 <0>        -0.5901
     15 H1          0.0818   -8.1556   -3.0553 H         1 <0>         0.4265
     16 C11         0.0901   -8.5688   -5.1223 C.ar      1 <0>         0.0446
     17 C12         0.1008   -9.9315   -5.3824 C.ar      1 <0>        -0.0800
     18 C13         0.1076  -10.3901   -6.6855 C.ar      1 <0>        -0.1088
     19 C14         0.1033   -9.5025   -7.7459 C.ar      1 <0>        -0.0851
     20 C15         0.0926   -8.1295   -7.5146 C.ar      1 <0>        -0.0871
     21 C16         0.0856   -7.6493   -6.1862 C.ar      1 <0>         0.1033
     22 N4          0.0695   -6.4165   -5.6504 N.2       1 <0>        -0.4443
     23 C17         0.0891   -7.1853   -8.6460 C.2       1 <0>         0.5575
     24 O2          0.0797   -5.9872   -8.4381 O.2       1 <0>        -0.5104
     25 N5          0.0963   -7.6497   -9.9112 N.am      1 <0>        -0.8547
     26 H2          1.0042    1.8801    0.0026 H         1 <0>         0.0984
     27 H3         -0.5455    1.8639   -0.8728 H         1 <0>         0.0992
     28 H4         -0.5286    1.8543    0.9071 H         1 <0>         0.0925
     29 H5          0.0226   -1.9686   -3.4432 H         1 <0>         0.1527
     30 H6          0.0430   -3.8814   -4.9842 H         1 <0>         0.1569
     31 H7          0.0745   -6.5729   -1.6436 H         1 <0>         0.1338
     32 H8          0.0659   -4.6601   -0.1023 H         1 <0>         0.1448
     33 H9          0.1042  -10.6358   -4.5637 H         1 <0>         0.1317
     34 H10         0.1167  -11.4527   -6.8780 H         1 <0>         0.1413
     35 H11         0.1088   -9.8763   -8.7591 H         1 <0>         0.1367
     36 H12         0.1038   -8.6054  -10.0771 H         1 <0>         0.3987
     37 H13         0.0939   -7.0283  -10.6560 H         1 <0>         0.4060
@<TRIPOS>BOND
     1    1    2 1
     2    1   26 1
     3    1   27 1
     4    1   28 1
     5    2    6 2
     6    2    3 1
     7    3    4 2
     8    4    5 1
     9    4    7 1
    10    5    6 1
    11    7   12 ar
    12    7    8 ar
    13    8    9 ar
    14    8   29 1
    15    9   10 ar
    16    9   30 1
    17   10   11 ar
    18   10   13 1
    19   11   12 ar
    20   11   31 1
    21   12   32 1
    22   13   22 2
    23   13   14 1
    24   14   15 1
    25   14   16 1
    26   16   21 ar
    27   16   17 ar
    28   17   18 ar
    29   17   33 1
    30   18   19 ar
    31   18   34 1
    32   19   20 ar
    33   19   35 1
    34   20   21 ar
    35   20   23 1
    36   21   22 1
    37   23   24 2
    38   23   25 am
    39   25   36 1
    40   25   37 1
@<TRIPOS>MOLECULE
CHEMBL1094313
   28    30     0     0     0
SMALL
USER_CHARGES

@<TRIPOS>ATOM
      1 C1         -0.0167    1.3790    0.0096 C.ar      1 <0>        -0.0961
      2 C2          1.1687    2.0919    0.0021 C.ar      1 <0>        -0.1245
      3 C3          2.3774    1.4258   -0.0130 C.ar      1 <0>        -0.0776
      4 C4          2.4022    0.0327   -0.0207 C.ar      1 <0>        -0.0295
      5 C5          1.2051   -0.6804   -0.0131 C.ar      1 <0>        -0.0702
      6 C6          0.0021   -0.0041    0.0020 C.ar      1 <0>        -0.1250
      7 C7          3.6988   -0.6890   -0.0375 C.2       1 <0>         0.3166
      8 N1          3.8436   -2.0158   -0.0514 N.2       1 <0>        -0.5445
      9 C8          5.1291   -2.3221   -0.0646 C.2       1 <0>         0.3063
     10 C9          5.8542   -3.5931   -0.0830 C.2       1 <0>        -0.1388
     11 C10         7.2445   -3.5576   -0.0941 C.2       1 <0>         0.0208
     12 C11         7.8949   -2.3224   -0.0873 C.2       1 <0>        -0.1695
     13 C12         7.1947   -1.1647   -0.0702 C.2       1 <0>         0.1469
     14 N2          5.8377   -1.1523   -0.0589 N.pl3     1 <0>        -0.2929
     15 N3          4.8887   -0.1196   -0.0467 N.2       1 <0>        -0.3211
     16 C13         5.1308   -4.8759   -0.0892 C.2       1 <0>         0.5781
     17 O1          5.7496   -5.9229   -0.1046 O.2       1 <0>        -0.5401
     18 N4          3.7832   -4.8897   -0.0779 N.am      1 <0>        -0.8408
     19 H1         -0.9602    1.9042    0.0260 H         1 <0>         0.1287
     20 H2          1.1483    3.1717    0.0078 H         1 <0>         0.1310
     21 H3          3.3023    1.9834   -0.0192 H         1 <0>         0.1320
     22 H4          1.2186   -1.7603   -0.0194 H         1 <0>         0.1360
     23 H5         -0.9264   -0.5558    0.0079 H         1 <0>         0.1317
     24 H6          7.8143   -4.4749   -0.1074 H         1 <0>         0.1688
     25 H7          8.9744   -2.2903   -0.0955 H         1 <0>         0.1731
     26 H8          7.7295   -0.2264   -0.0654 H         1 <0>         0.1789
     27 H9          3.2897   -4.0546   -0.0656 H         1 <0>         0.4160
     28 H10         3.3067   -5.7346   -0.0819 H         1 <0>         0.4059
@<TRIPOS>BOND
     1    1    6 ar
     2    1    2 ar
     3    1   19 1
     4    2    3 ar
     5    2   20 1
     6    3    4 ar
     7    3   21 1
     8    4    5 ar
     9    4    7 1
    10    5    6 ar
    11    5   22 1
    12    6   23 1
    13    7   15 2
    14    7    8 1
    15    8    9 2
    16    9   14 1
    17    9   10 1
    18   10   11 2
    19   10   16 1
    20   11   12 1
    21   11   24 1
    22   12   13 2
    23   12   25 1
    24   13   14 1
    25   13   26 1
    26   14   15 1
    27   16   17 2
    28   16   18 am
    29   18   27 1
    30   18   28 1
@<TRIPOS>MOLECULE
CHEMBL1096560
   28    30     0     0     0
SMALL
USER_CHARGES

@<TRIPOS>ATOM
      1 C1         -0.0167    1.3787    0.0096 C.ar      1 <0>        -0.1017
      2 C2          1.1696    2.0893    0.0021 C.ar      1 <0>        -0.1058
      3 C3          2.3774    1.4197   -0.0130 C.ar      1 <0>        -0.0936
      4 C4          2.3997    0.0310   -0.0207 C.ar      1 <0>         0.1205
      5 C5          1.2065   -0.6797   -0.0132 C.ar      1 <0>        -0.0908
      6 C6          0.0021   -0.0041    0.0020 C.ar      1 <0>        -0.1044
      7 N1          3.6226   -0.6511   -0.0366 N.pl3     1 <0>        -0.0541
      8 N2          4.7677   -0.0619   -0.0393 N.2       1 <0>        -0.2688
      9 C7          5.7209   -0.9812   -0.0554 C.ar      1 <0>         0.0195
     10 C8          7.1251   -0.9933   -0.0667 C.ar      1 <0>        -0.0250
     11 C9          7.8049   -2.1706   -0.0845 C.ar      1 <0>        -0.1172
     12 C10         7.1653   -3.4036   -0.0919 C.ar      1 <0>        -0.0491
     13 C11         5.7811   -3.4971   -0.0819 C.ar      1 <0>        -0.0823
     14 C12         4.9997   -2.2631   -0.0627 C.ar      1 <0>         0.0618
     15 N3          3.7230   -1.9350   -0.0445 N.2       1 <0>        -0.2479
     16 C13         5.1147   -4.8108   -0.0901 C.2       1 <0>         0.5608
     17 O1          3.9003   -4.8767   -0.0811 O.2       1 <0>        -0.5187
     18 N4          5.8508   -5.9397   -0.1074 N.am      1 <0>        -0.8506
     19 H1         -0.9598    1.9047    0.0260 H         1 <0>         0.1356
     20 H2          1.1516    3.1692    0.0077 H         1 <0>         0.1399
     21 H3          3.3035    1.9753   -0.0193 H         1 <0>         0.1443
     22 H4          1.2204   -1.7596   -0.0195 H         1 <0>         0.1471
     23 H5         -0.9261   -0.5562    0.0083 H         1 <0>         0.1403
     24 H6          7.6692   -0.0604   -0.0615 H         1 <0>         0.1432
     25 H7          8.8845   -2.1462   -0.0935 H         1 <0>         0.1454
     26 H8          7.7569   -4.3069   -0.1062 H         1 <0>         0.1428
     27 H9          6.8193   -5.8872   -0.1145 H         1 <0>         0.4003
     28 H10         5.4119   -6.8048   -0.1127 H         1 <0>         0.4083
@<TRIPOS>BOND
     1    1    6 ar
     2    1    2 ar
     3    1   19 1
     4    2    3 ar
     5    2   20 1
     6    3    4 ar
     7    3   21 1
     8    4    5 ar
     9    4    7 1
    10    5    6 ar
    11    5   22 1
    12    6   23 1
    13    7   15 1
    14    7    8 1
    15    8    9 2
    16    9   14 ar
    17    9   10 ar
    18   10   11 ar
    19   10   24 1
    20   11   12 ar
    21   11   25 1
    22   12   13 ar
    23   12   26 1
    24   13   14 ar
    25   13   16 1
    26   14   15 2
    27   16   17 2
    28   16   18 am
    29   18   27 1
    30   18   28 1
@<TRIPOS>MOLECULE
CHEMBL110381
   23    25     0     0     0
SMALL
USER_CHARGES

@<TRIPOS>ATOM
      1 C1         -0.0166    1.3754    0.0096 C.ar      1 <0>        -0.0782
      2 C2          1.1677    2.0974    0.0022 C.ar      1 <0>        -0.1283
      3 C3          2.3849    1.4503   -0.0134 C.ar      1 <0>        -0.0445
      4 C4          2.4250    0.0570   -0.0213 C.ar      1 <0>        -0.1440
      5 C5          1.2198   -0.6753   -0.0133 C.ar      1 <0>         0.0041
      6 C6          0.0021   -0.0041    0.0020 C.ar      1 <0>        -0.1207
      7 C7          1.2967   -2.1471   -0.0225 C.ar      1 <0>        -0.1433
      8 C8          0.1397   -2.9269   -0.0157 C.ar      1 <0>        -0.0230
      9 C9          0.2795   -4.3039   -0.0255 C.ar      1 <0>        -0.1989
     10 C10         1.5496   -4.8548   -0.0415 C.ar      1 <0>         0.1549
     11 N1          2.6270   -4.0980   -0.0476 N.ar      1 <0>        -0.5151
     12 C11         2.5533   -2.7726   -0.0388 C.ar      1 <0>         0.3769
     13 N2          3.7124   -2.0209   -0.0462 N.am      1 <0>        -0.6283
     14 C12         3.6990   -0.6765   -0.0383 C.2       1 <0>         0.5663
     15 O1          4.7493   -0.0622   -0.0458 O.2       1 <0>        -0.5110
     16 H1         -0.9618    1.8978    0.0260 H         1 <0>         0.1351
     17 H2          1.1360    3.1769    0.0083 H         1 <0>         0.1362
     18 H3          3.3025    2.0199   -0.0198 H         1 <0>         0.1426
     19 H4         -0.9241   -0.5596    0.0083 H         1 <0>         0.1356
     20 H5         -0.8382   -2.4686   -0.0028 H         1 <0>         0.1471
     21 H6         -0.5923   -4.9414   -0.0203 H         1 <0>         0.1468
     22 H7          1.6590   -5.9292   -0.0487 H         1 <0>         0.1686
     23 H8          4.5669   -2.4798   -0.0574 H         1 <0>         0.4214
@<TRIPOS>BOND
     1    1    6 ar
     2    1    2 ar
     3    1   16 1
     4    2    3 ar
     5    2   17 1
     6    3    4 ar
     7    3   18 1
     8    4   14 1
     9    4    5 ar
    10    5    6 ar
    11    5    7 1
    12    6   19 1
    13    7   12 ar
    14    7    8 ar
    15    8    9 ar
    16    8   20 1
    17    9   10 ar
    18    9   21 1
    19   10   11 ar
    20   10   22 1
    21   11   12 ar
    22   12   13 1
    23   13   14 am
    24   13   23 1
    25   14   15 2
@<TRIPOS>MOLECULE
CHEMBL520922
   48    50     0     0     0
SMALL
USER_CHARGES

@<TRIPOS>ATOM
      1 C1         -0.0187    1.5258    0.0104 C.3       1 <0>        -0.1829
      2 C2          0.0021   -0.0041    0.0020 C.3       1 <0>         0.1525
      3 C3          0.7421   -0.5109    1.2415 C.3       1 <0>        -0.1812
      4 C4         -1.4117   -0.5257    0.0127 C.2       1 <0>         0.2371
      5 N1         -2.3276   -0.2740    0.9841 N.pl3     1 <0>        -0.5697
      6 H1         -2.1906    0.2639    1.7796 H         1 <0>         0.4322
      7 C5         -3.4911   -0.9275    0.6261 C.ar      1 <0>         0.0564
      8 C6         -4.7477   -1.0441    1.2025 C.ar      1 <0>        -0.0793
      9 C7         -5.7297   -1.7907    0.5814 C.ar      1 <0>        -0.0911
     10 C8         -5.4766   -2.4297   -0.6185 C.ar      1 <0>        -0.0751
     11 C9         -4.2243   -2.3288   -1.2188 C.ar      1 <0>        -0.0842
     12 C10        -3.2140   -1.5689   -0.5924 C.ar      1 <0>         0.1002
     13 N2         -1.9369   -1.2797   -0.9110 N.2       1 <0>        -0.4621
     14 C11        -3.9563   -3.0103   -2.4982 C.2       1 <0>         0.5625
     15 O1         -2.8608   -2.9188   -3.0181 O.2       1 <0>        -0.5250
     16 N3         -4.9255   -3.7348   -3.0917 N.am      1 <0>        -0.8479
     17 N4          0.6897   -0.4778   -1.2066 N.4       1 <0>        -0.3702
     18 C12         0.7096   -1.9467   -1.2147 C.3       1 <0>        -0.0715
     19 C13         2.0678    0.0307   -1.2170 C.3       1 <0>        -0.0111
     20 C14         2.7448   -0.3577   -2.5330 C.3       1 <0>        -0.1527
     21 C15         4.2102    0.1408   -2.5563 C.3       1 <0>        -0.1436
     22 C16         4.3597    0.6416   -4.0155 C.3       1 <0>         0.0432
     23 O2          3.0723    1.2280   -4.3039 O.3       1 <0>        -0.3634
     24 C17         2.0794    0.3701   -3.7172 C.3       1 <0>         0.0388
     25 H2          1.0039    1.9031    0.0027 H         1 <0>         0.1016
     26 H3         -0.5459    1.8868   -0.8726 H         1 <0>         0.0915
     27 H4         -0.5289    1.8773    0.9072 H         1 <0>         0.1068
     28 H5          0.2319   -0.1594    2.1383 H         1 <0>         0.1050
     29 H6          0.7568   -1.6008    1.2356 H         1 <0>         0.0931
     30 H7          1.7647   -0.1336    1.2338 H         1 <0>         0.1005
     31 H8         -4.9584   -0.5500    2.1394 H         1 <0>         0.1391
     32 H9         -6.7048   -1.8766    1.0376 H         1 <0>         0.1502
     33 H10        -6.2542   -3.0104   -1.0923 H         1 <0>         0.1441
     34 H11        -5.7994   -3.8078   -2.6770 H         1 <0>         0.4025
     35 H12        -4.7492   -4.1832   -3.9336 H         1 <0>         0.4107
     36 H13         1.2198   -2.2982   -2.1115 H         1 <0>         0.1251
     37 H14         1.2368   -2.3077   -0.3316 H         1 <0>         0.1178
     38 H15        -0.3130   -2.3239   -1.2069 H         1 <0>         0.1572
     39 H16         2.0552    1.1164   -1.1215 H         1 <0>         0.1379
     40 H17         2.6207   -0.4011   -0.3828 H         1 <0>         0.1393
     41 H18         2.7046   -1.4374   -2.6775 H         1 <0>         0.1128
     42 H19         4.3548    0.9568   -1.8482 H         1 <0>         0.0895
     43 H20         4.9023   -0.6763   -2.3526 H         1 <0>         0.0980
     44 H21         5.1475    1.3917   -4.0850 H         1 <0>         0.1070
     45 H22         4.5613   -0.1918   -4.6885 H         1 <0>         0.0724
     46 H23         1.7360   -0.3568   -4.4533 H         1 <0>         0.0784
     47 H24         1.2387    0.9655   -3.3611 H         1 <0>         0.0777
     48 H25         0.2017   -0.1436   -2.0240 H         1 <0>         0.4299
@<TRIPOS>BOND
     1    1    2 1
     2    1   25 1
     3    1   26 1
     4    1   27 1
     5    2    3 1
     6    2    4 1
     7    2   17 1
     8    3   28 1
     9    3   29 1
    10    3   30 1
    11    4   13 2
    12    4    5 1
    13    5    6 1
    14    5    7 1
    15    7   12 ar
    16    7    8 ar
    17    8    9 ar
    18    8   31 1
    19    9   10 ar
    20    9   32 1
    21   10   11 ar
    22   10   33 1
    23   11   12 ar
    24   11   14 1
    25   12   13 1
    26   14   15 2
    27   14   16 am
    28   16   34 1
    29   16   35 1
    30   17   18 1
    31   17   19 1
    32   17   48 1
    33   18   36 1
    34   18   37 1
    35   18   38 1
    36   19   20 1
    37   19   39 1
    38   19   40 1
    39   20   24 1
    40   20   21 1
    41   20   41 1
    42   21   22 1
    43   21   42 1
    44   21   43 1
    45   22   23 1
    46   22   44 1
    47   22   45 1
    48   23   24 1
    49   24   46 1
    50   24   47 1
@<TRIPOS>MOLECULE
CHEMBL520922__1
   47    49     0     0     0
SMALL
USER_CHARGES

@<TRIPOS>ATOM
      1 C1          0.1684    1.6004   -0.0659 C.3       1 <0>        -0.1482
      2 C2         -0.2429    0.1276   -0.1165 C.3       1 <0>         0.1883
      3 C3          0.0499   -0.5303    1.2334 C.3       1 <0>        -0.1858
      4 C4         -1.7166    0.0275   -0.4150 C.2       1 <0>         0.2997
      5 N1         -2.7093    0.4468    0.4125 N.pl3     1 <0>        -0.5948
      6 H1         -2.5976    0.8567    1.2845 H         1 <0>         0.4223
      7 C5         -3.9076    0.1803   -0.2214 C.ar      1 <0>         0.0352
      8 C6         -5.2397    0.3764    0.1134 C.ar      1 <0>        -0.0797
      9 C7         -6.2387   -0.0087   -0.7590 C.ar      1 <0>        -0.1149
     10 C8         -5.9277   -0.5922   -1.9736 C.ar      1 <0>        -0.0883
     11 C9         -4.5991   -0.8001   -2.3346 C.ar      1 <0>        -0.0887
     12 C10        -3.5710   -0.4107   -1.4502 C.ar      1 <0>         0.0994
     13 N2         -2.2258   -0.4687   -1.5068 N.2       1 <0>        -0.4363
     14 C11        -4.2694   -1.4217   -3.6299 C.2       1 <0>         0.5560
     15 O1         -3.1073   -1.6009   -3.9401 O.2       1 <0>        -0.5063
     16 N3         -5.2560   -1.7916   -4.4704 N.am      1 <0>        -0.8568
     17 N4          0.5177   -0.5573   -1.1702 N.3       1 <0>        -0.5079
     18 C12         0.2208   -1.9959   -1.1834 C.3       1 <0>         0.0196
     19 C13         1.9593   -0.3187   -1.0187 C.3       1 <0>         0.0566
     20 C14         2.6941   -0.8306   -2.2592 C.3       1 <0>        -0.1169
     21 C15         4.2204   -0.6183   -2.1110 C.3       1 <0>        -0.1507
     22 C16         4.6239   -0.1577   -3.5349 C.3       1 <0>         0.0460
     23 O2          3.5104    0.6611   -3.9522 O.3       1 <0>        -0.3823
     24 C17         2.3144    0.0076   -3.4953 C.3       1 <0>         0.0597
     25 H2          1.2343    1.6728    0.1499 H         1 <0>         0.0771
     26 H3         -0.0402    2.0691   -1.0277 H         1 <0>         0.0757
     27 H4         -0.3960    2.1086    0.7159 H         1 <0>         0.0620
     28 H5         -0.5145   -0.0222    2.0153 H         1 <0>         0.0628
     29 H6         -0.2431   -1.5796    1.1974 H         1 <0>         0.0688
     30 H7          1.1159   -0.4580    1.4493 H         1 <0>         0.0755
     31 H8         -5.4961    0.8311    1.0589 H         1 <0>         0.1279
     32 H9         -7.2729    0.1471   -0.4899 H         1 <0>         0.1382
     33 H10        -6.7196   -0.8885   -2.6455 H         1 <0>         0.1338
     34 H11        -6.1829   -1.6486   -4.2229 H         1 <0>         0.3977
     35 H12        -5.0391   -2.2006   -5.3227 H         1 <0>         0.4047
     36 H13        -0.8573   -2.1438   -1.2454 H         1 <0>         0.0868
     37 H14         0.7011   -2.4582   -2.0459 H         1 <0>         0.0714
     38 H15         0.5983   -2.4532   -0.2689 H         1 <0>         0.0219
     39 H16         2.1406    0.7500   -0.9043 H         1 <0>         0.0866
     40 H17         2.3241   -0.8456   -0.1370 H         1 <0>         0.0401
     41 H18         2.4680   -1.8835   -2.4281 H         1 <0>         0.0849
     42 H19         4.4357    0.1571   -1.3757 H         1 <0>         0.0776
     43 H20         4.7192   -1.5511   -1.8480 H         1 <0>         0.0793
     44 H21         5.5415    0.4298   -3.5026 H         1 <0>         0.0910
     45 H22         4.7392   -1.0155   -4.1975 H         1 <0>         0.0592
     46 H23         1.9251   -0.6427   -4.2787 H         1 <0>         0.0576
     47 H24         1.5663    0.7519   -3.2228 H         1 <0>         0.0943
@<TRIPOS>BOND
     1    1    2 1
     2    1   25 1
     3    1   26 1
     4    1   27 1
     5    2    3 1
     6    2    4 1
     7    2   17 1
     8    3   28 1
     9    3   29 1
    10    3   30 1
    11    4   13 2
    12    4    5 1
    13    5    6 1
    14    5    7 1
    15    7   12 ar
    16    7    8 ar
    17    8    9 ar
    18    8   31 1
    19    9   10 ar
    20    9   32 1
    21   10   11 ar
    22   10   33 1
    23   11   12 ar
    24   11   14 1
    25   12   13 1
    26   14   15 2
    27   14   16 am
    28   16   34 1
    29   16   35 1
    30   17   18 1
    31   17   19 1
    32   18   36 1
    33   18   37 1
    34   18   38 1
    35   19   20 1
    36   19   39 1
    37   19   40 1
    38   20   24 1
    39   20   21 1
    40   20   41 1
    41   21   22 1
    42   21   42 1
    43   21   43 1
    44   22   23 1
    45   22   44 1
    46   22   45 1
    47   23   24 1
    48   24   46 1
    49   24   47 1
@<TRIPOS>MOLECULE
CHEMBL520922__2
   48    50     0     0     0
SMALL
USER_CHARGES

@<TRIPOS>ATOM
      1 C1         -0.3268    1.5624   -0.0737 C.3       1 <0>        -0.1817
      2 C2         -0.2971    0.0380   -0.2011 C.3       1 <0>         0.1525
      3 C3          0.1480   -0.5762    1.1276 C.3       1 <0>        -0.1809
      4 C4         -1.6746   -0.4638   -0.5500 C.2       1 <0>         0.2350
      5 N1         -2.7865   -0.2784    0.2083 N.pl3     1 <0>        -0.5701
      6 H1         -2.8343    0.1922    1.0551 H         1 <0>         0.4320
      7 C5         -3.8366   -0.8856   -0.4533 C.ar      1 <0>         0.0563
      8 C6         -5.1900   -1.0310   -0.1848 C.ar      1 <0>        -0.0797
      9 C7         -6.0036   -1.7124   -1.0686 C.ar      1 <0>        -0.0908
     10 C8         -5.4843   -2.2567   -2.2288 C.ar      1 <0>        -0.0754
     11 C9         -4.1297   -2.1249   -2.5228 C.ar      1 <0>        -0.0836
     12 C10        -3.2897   -1.4311   -1.6263 C.ar      1 <0>         0.0997
     13 N2         -1.9751   -1.1344   -1.6259 N.2       1 <0>        -0.4602
     14 C11        -3.5778   -2.7053   -3.7603 C.2       1 <0>         0.5622
     15 O1         -2.3940   -2.5872   -4.0121 O.2       1 <0>        -0.5241
     16 N3         -4.3853   -3.3670   -4.6128 N.am      1 <0>        -0.8481
     17 N4          0.6467   -0.3467   -1.2590 N.4       1 <0>        -0.3682
     18 C12         0.6752   -1.8104   -1.3813 C.3       1 <0>        -0.0744
     19 C13         1.9895    0.1424   -0.9189 C.3       1 <0>        -0.0077
     20 C14         2.9314   -0.0886   -2.1022 C.3       1 <0>        -0.1520
     21 C15         4.3587    0.4334   -1.7827 C.3       1 <0>        -0.1435
     22 C16         5.2181   -0.4911   -2.6813 C.3       1 <0>         0.0475
     23 O2          4.5621   -1.7684   -2.6412 O.3       1 <0>        -0.3705
     24 C17         3.1760   -1.5968   -2.3234 C.3       1 <0>         0.0392
     25 H2          0.6696    1.9253    0.1786 H         1 <0>         0.1012
     26 H3         -0.6439    2.0000   -1.0203 H         1 <0>         0.0915
     27 H4         -1.0271    1.8478    0.7112 H         1 <0>         0.1062
     28 H5         -0.5523   -0.2908    1.9126 H         1 <0>         0.1046
     29 H6          0.1692   -1.6623    1.0369 H         1 <0>         0.0924
     30 H7          1.1444   -0.2133    1.3800 H         1 <0>         0.1000
     31 H8         -5.6082   -0.6107    0.7179 H         1 <0>         0.1390
     32 H9         -7.0559   -1.8214   -0.8512 H         1 <0>         0.1501
     33 H10        -6.1328   -2.7871   -2.9104 H         1 <0>         0.1441
     34 H11        -5.3296   -3.4612   -4.4120 H         1 <0>         0.4023
     35 H12        -4.0222   -3.7489   -5.4271 H         1 <0>         0.4107
     36 H13         1.1211   -2.0865   -2.3368 H         1 <0>         0.1345
     37 H14         1.2674   -2.2314   -0.5687 H         1 <0>         0.1179
     38 H15        -0.3417   -2.1992   -1.3290 H         1 <0>         0.1475
     39 H16         1.9420    1.2081   -0.6950 H         1 <0>         0.1403
     40 H17         2.3623   -0.3957   -0.0473 H         1 <0>         0.1378
     41 H18         2.5378    0.3771   -3.0057 H         1 <0>         0.1121
     42 H19         4.4694    1.4779   -2.0741 H         1 <0>         0.0995
     43 H20         4.6015    0.2936   -0.7293 H         1 <0>         0.0911
     44 H21         5.2424   -0.1102   -3.7023 H         1 <0>         0.0718
     45 H22         6.2294   -0.5725   -2.2829 H         1 <0>         0.0991
     46 H23         2.9340   -2.1478   -1.4146 H         1 <0>         0.0781
     47 H24         2.5604   -1.9541   -3.1489 H         1 <0>         0.0819
     48 H25         0.3532    0.0583   -2.1352 H         1 <0>         0.4329
@<TRIPOS>BOND
     1    1    2 1
     2    1   25 1
     3    1   26 1
     4    1   27 1
     5    2    3 1
     6    2    4 1
     7    2   17 1
     8    3   28 1
     9    3   29 1
    10    3   30 1
    11    4   13 2
    12    4    5 1
    13    5    6 1
    14    5    7 1
    15    7   12 ar
    16    7    8 ar
    17    8    9 ar
    18    8   31 1
    19    9   10 ar
    20    9   32 1
    21   10   11 ar
    22   10   33 1
    23   11   12 ar
    24   11   14 1
    25   12   13 1
    26   14   15 2
    27   14   16 am
    28   16   34 1
    29   16   35 1
    30   17   18 1
    31   17   19 1
    32   17   48 1
    33   18   36 1
    34   18   37 1
    35   18   38 1
    36   19   20 1
    37   19   39 1
    38   19   40 1
    39   20   24 1
    40   20   21 1
    41   20   41 1
    42   21   22 1
    43   21   42 1
    44   21   43 1
    45   22   23 1
    46   22   44 1
    47   22   45 1
    48   23   24 1
    49   24   46 1
    50   24   47 1
@<TRIPOS>MOLECULE
CHEMBL520922__3
   47    49     0     0     0
SMALL
USER_CHARGES

@<TRIPOS>ATOM
      1 C1         -0.2446    1.5361   -0.2726 C.3       1 <0>        -0.1462
      2 C2         -0.0078    0.0331   -0.1128 C.3       1 <0>         0.1875
      3 C3          0.7815   -0.2251    1.1722 C.3       1 <0>        -0.1859
      4 C4         -1.3337   -0.6794   -0.0396 C.2       1 <0>         0.2988
      5 N1         -2.2305   -0.5542    0.9733 N.pl3     1 <0>        -0.5942
      6 H1         -2.1332   -0.0002    1.7635 H         1 <0>         0.4225
      7 C5         -3.3072   -1.3637    0.6663 C.ar      1 <0>         0.0354
      8 C6         -4.5080   -1.6515    1.2989 C.ar      1 <0>        -0.0796
      9 C7         -5.4043   -2.5289    0.7206 C.ar      1 <0>        -0.1145
     10 C8         -5.1200   -3.1302   -0.4917 C.ar      1 <0>        -0.0881
     11 C9         -3.9224   -2.8585   -1.1481 C.ar      1 <0>        -0.0885
     12 C10        -2.9997   -1.9641   -0.5656 C.ar      1 <0>         0.0989
     13 N2         -1.7908   -1.5016   -0.9411 N.2       1 <0>        -0.4370
     14 C11        -3.6211   -3.5000   -2.4406 C.2       1 <0>         0.5559
     15 O1         -2.5736   -3.2591   -3.0094 O.2       1 <0>        -0.5064
     16 N3         -4.5065   -4.3536   -2.9919 N.am      1 <0>        -0.8566
     17 N4          0.7543   -0.4678   -1.2645 N.3       1 <0>        -0.5079
     18 C12         0.9961   -1.9120   -1.1480 C.3       1 <0>         0.0053
     19 C13         2.0171    0.2666   -1.4198 C.3       1 <0>         0.0579
     20 C14         2.5743    0.0314   -2.8252 C.3       1 <0>        -0.1139
     21 C15         3.9226    0.7779   -3.0172 C.3       1 <0>        -0.1520
     22 C16         4.6058   -0.1178   -4.0811 C.3       1 <0>         0.0508
     23 O2          4.2168   -1.4597   -3.7473 O.3       1 <0>        -0.3883
     24 C17         2.9873   -1.4443   -3.0126 C.3       1 <0>         0.0513
     25 H2          0.7144    2.0515   -0.3256 H         1 <0>         0.0766
     26 H3         -0.8069    1.7200   -1.1881 H         1 <0>         0.0754
     27 H4         -0.8100    1.9078    0.5819 H         1 <0>         0.0618
     28 H5          0.2161    0.1465    2.0267 H         1 <0>         0.0628
     29 H6          0.9503   -1.2959    1.2860 H         1 <0>         0.0676
     30 H7          1.7406    0.2902    1.1192 H         1 <0>         0.0760
     31 H8         -4.7423   -1.1887    2.2461 H         1 <0>         0.1282
     32 H9         -6.3364   -2.7477    1.2204 H         1 <0>         0.1385
     33 H10        -5.8304   -3.8144   -0.9316 H         1 <0>         0.1341
     34 H11        -5.3421   -4.5457   -2.5382 H         1 <0>         0.3978
     35 H12        -4.3083   -4.7757   -3.8424 H         1 <0>         0.4049
     36 H13         0.0709   -2.4136   -0.8641 H         1 <0>         0.0887
     37 H14         1.3411   -2.3011   -2.1059 H         1 <0>         0.0837
     38 H15         1.7557   -2.0930   -0.3875 H         1 <0>         0.0213
     39 H16         1.8383    1.3318   -1.2734 H         1 <0>         0.0862
     40 H17         2.7358   -0.0862   -0.6802 H         1 <0>         0.0422
     41 H18         1.8502    0.3308   -3.5829 H         1 <0>         0.0962
     42 H19         3.7623    1.7868   -3.3974 H         1 <0>         0.0847
     43 H20         4.4971    0.7958   -2.0911 H         1 <0>         0.0777
     44 H21         4.2511    0.1419   -5.0785 H         1 <0>         0.0609
     45 H22         5.6892   -0.0129   -4.0247 H         1 <0>         0.0839
     46 H23         3.1319   -1.9142   -2.0398 H         1 <0>         0.0703
     47 H24         2.2165   -1.9760   -3.5705 H         1 <0>         0.0754
@<TRIPOS>BOND
     1    1    2 1
     2    1   25 1
     3    1   26 1
     4    1   27 1
     5    2    3 1
     6    2    4 1
     7    2   17 1
     8    3   28 1
     9    3   29 1
    10    3   30 1
    11    4   13 2
    12    4    5 1
    13    5    6 1
    14    5    7 1
    15    7   12 ar
    16    7    8 ar
    17    8    9 ar
    18    8   31 1
    19    9   10 ar
    20    9   32 1
    21   10   11 ar
    22   10   33 1
    23   11   12 ar
    24   11   14 1
    25   12   13 1
    26   14   15 2
    27   14   16 am
    28   16   34 1
    29   16   35 1
    30   17   18 1
    31   17   19 1
    32   18   36 1
    33   18   37 1
    34   18   38 1
    35   19   20 1
    36   19   39 1
    37   19   40 1
    38   20   24 1
    39   20   21 1
    40   20   41 1
    41   21   22 1
    42   21   42 1
    43   21   43 1
    44   22   23 1
    45   22   44 1
    46   22   45 1
    47   23   24 1
    48   24   46 1
    49   24   47 1
@<TRIPOS>MOLECULE
CHEMBL481083
   44    46     0     0     0
SMALL
USER_CHARGES

@<TRIPOS>ATOM
      1 C1         -0.0187    1.5258    0.0104 C.3       1 <0>        -0.1864
      2 C2          0.0021   -0.0041    0.0020 C.3       1 <0>         0.1539
      3 C3          0.7421   -0.5109    1.2415 C.3       1 <0>        -0.1800
      4 C4         -1.4117   -0.5257    0.0127 C.2       1 <0>         0.2389
      5 N1         -2.3276   -0.2740    0.9841 N.pl3     1 <0>        -0.5706
      6 H1         -2.1906    0.2639    1.7796 H         1 <0>         0.4318
      7 C5         -3.4911   -0.9275    0.6261 C.ar      1 <0>         0.0553
      8 C6         -4.7477   -1.0441    1.2025 C.ar      1 <0>        -0.0792
      9 C7         -5.7297   -1.7907    0.5814 C.ar      1 <0>        -0.0920
     10 C8         -5.4766   -2.4297   -0.6185 C.ar      1 <0>        -0.0754
     11 C9         -4.2243   -2.3288   -1.2188 C.ar      1 <0>        -0.0847
     12 C10        -3.2140   -1.5689   -0.5924 C.ar      1 <0>         0.1003
     13 N2         -1.9369   -1.2797   -0.9110 N.2       1 <0>        -0.4629
     14 C11        -3.9563   -3.0103   -2.4982 C.2       1 <0>         0.5625
     15 O1         -2.8608   -2.9188   -3.0181 O.2       1 <0>        -0.5248
     16 N3         -4.9255   -3.7348   -3.0917 N.am      1 <0>        -0.8481
     17 N4          0.6897   -0.4778   -1.2066 N.4       1 <0>        -0.3608
     18 C12         0.7096   -1.9467   -1.2147 C.3       1 <0>        -0.0660
     19 C13         2.0678    0.0307   -1.2170 C.3       1 <0>        -0.0172
     20 C14         2.1901    1.4680   -1.7498 C.3       1 <0>        -0.1494
     21 C15         3.4694    1.0088   -2.4691 C.3       1 <0>        -0.1353
     22 C16         2.8779   -0.4105   -2.4475 C.3       1 <0>        -0.1433
     23 H2          1.0039    1.9031    0.0027 H         1 <0>         0.1073
     24 H3         -0.5459    1.8868   -0.8726 H         1 <0>         0.0889
     25 H4         -0.5289    1.8773    0.9072 H         1 <0>         0.1015
     26 H5          0.2319   -0.1594    2.1383 H         1 <0>         0.1033
     27 H6          0.7568   -1.6008    1.2356 H         1 <0>         0.0920
     28 H7          1.7647   -0.1336    1.2338 H         1 <0>         0.0990
     29 H8         -4.9584   -0.5500    2.1394 H         1 <0>         0.1387
     30 H9         -6.7048   -1.8766    1.0376 H         1 <0>         0.1499
     31 H10        -6.2542   -3.0104   -1.0923 H         1 <0>         0.1438
     32 H11        -5.7994   -3.8078   -2.6770 H         1 <0>         0.4024
     33 H12        -4.7492   -4.1832   -3.9336 H         1 <0>         0.4106
     34 H13        -0.3130   -2.3239   -1.2069 H         1 <0>         0.1541
     35 H14         1.2198   -2.2982   -2.1115 H         1 <0>         0.1235
     36 H15         1.2368   -2.3077   -0.3316 H         1 <0>         0.1144
     37 H16         2.5860   -0.1317   -0.2719 H         1 <0>         0.1611
     38 H17         1.3857    1.7521   -2.4283 H         1 <0>         0.1049
     39 H18         2.3693    2.2088   -0.9705 H         1 <0>         0.1038
     40 H19         3.5782    1.4212   -3.4722 H         1 <0>         0.0961
     41 H20         4.3713    1.1152   -1.8664 H         1 <0>         0.1013
     42 H21         3.6124   -1.1864   -2.2314 H         1 <0>         0.1023
     43 H22         2.2615   -0.6400   -3.3167 H         1 <0>         0.1051
     44 H23         0.2017   -0.1436   -2.0240 H         1 <0>         0.4295
@<TRIPOS>BOND
     1    1    2 1
     2    1   23 1
     3    1   24 1
     4    1   25 1
     5    2    3 1
     6    2    4 1
     7    2   17 1
     8    3   26 1
     9    3   27 1
    10    3   28 1
    11    4   13 2
    12    4    5 1
    13    5    6 1
    14    5    7 1
    15    7   12 ar
    16    7    8 ar
    17    8    9 ar
    18    8   29 1
    19    9   10 ar
    20    9   30 1
    21   10   11 ar
    22   10   31 1
    23   11   12 ar
    24   11   14 1
    25   12   13 1
    26   14   15 2
    27   14   16 am
    28   16   32 1
    29   16   33 1
    30   17   18 1
    31   17   19 1
    32   17   44 1
    33   18   34 1
    34   18   35 1
    35   18   36 1
    36   19   22 1
    37   19   20 1
    38   19   37 1
    39   20   21 1
    40   20   38 1
    41   20   39 1
    42   21   22 1
    43   21   40 1
    44   21   41 1
    45   22   42 1
    46   22   43 1
@<TRIPOS>MOLECULE
CHEMBL481083__1
   43    45     0     0     0
SMALL
USER_CHARGES

@<TRIPOS>ATOM
      1 C1          0.1605    1.5647   -0.0263 C.3       1 <0>        -0.1492
      2 C2         -0.2257    0.0873   -0.1206 C.3       1 <0>         0.1875
      3 C3          0.0809   -0.6058    1.2085 C.3       1 <0>        -0.1856
      4 C4         -1.6982   -0.0289   -0.4198 C.2       1 <0>         0.3013
      5 N1         -2.6961    0.3562    0.4179 N.pl3     1 <0>        -0.5954
      6 H1         -2.5896    0.7480    1.2988 H         1 <0>         0.4220
      7 C5         -3.8910    0.0855   -0.2206 C.ar      1 <0>         0.0343
      8 C6         -5.2255    0.2533    0.1198 C.ar      1 <0>        -0.0795
      9 C7         -6.2195   -0.1275   -0.7602 C.ar      1 <0>        -0.1157
     10 C8         -5.9012   -0.6785   -1.9878 C.ar      1 <0>        -0.0885
     11 C9         -4.5700   -0.8575   -2.3548 C.ar      1 <0>        -0.0894
     12 C10        -3.5469   -0.4723   -1.4629 C.ar      1 <0>         0.0996
     13 N2         -2.2010   -0.5082   -1.5220 N.2       1 <0>        -0.4371
     14 C11        -4.2325   -1.4446   -3.6641 C.2       1 <0>         0.5559
     15 O1         -3.0682   -1.5987   -3.9794 O.2       1 <0>        -0.5063
     16 N3         -5.2143   -1.8106   -4.5118 N.am      1 <0>        -0.8569
     17 N4          0.5443   -0.5525   -1.1956 N.3       1 <0>        -0.4969
     18 C12         0.3027   -2.0012   -1.2258 C.3       1 <0>         0.0232
     19 C13         1.9778   -0.2606   -1.0619 C.3       1 <0>         0.0503
     20 C14         2.3862    1.1016   -1.6472 C.3       1 <0>        -0.1263
     21 C15         3.6499    0.4055   -2.1796 C.3       1 <0>        -0.1455
     22 C16         2.8423   -0.9030   -2.1595 C.3       1 <0>        -0.1283
     23 H2          1.2255    1.6488    0.1901 H         1 <0>         0.0814
     24 H3         -0.0579    2.0585   -0.9732 H         1 <0>         0.0741
     25 H4         -0.4109    2.0395    0.7713 H         1 <0>         0.0574
     26 H5         -0.4905   -0.1310    2.0061 H         1 <0>         0.0619
     27 H6         -0.1943   -1.6584    1.1413 H         1 <0>         0.0686
     28 H7          1.1459   -0.5218    1.4249 H         1 <0>         0.0748
     29 H8         -5.4877    0.6824    1.0756 H         1 <0>         0.1277
     30 H9         -7.2557    0.0061   -0.4866 H         1 <0>         0.1380
     31 H10        -6.6893   -0.9718   -2.6655 H         1 <0>         0.1336
     32 H11        -6.1430   -1.6877   -4.2603 H         1 <0>         0.3977
     33 H12        -4.9922   -2.1969   -5.3734 H         1 <0>         0.4046
     34 H13        -0.7691   -2.1896   -1.2872 H         1 <0>         0.0830
     35 H14         0.7981   -2.4341   -2.0949 H         1 <0>         0.0715
     36 H15         0.6999   -2.4548   -0.3178 H         1 <0>         0.0206
     37 H16         2.3528   -0.4341   -0.0532 H         1 <0>         0.0676
     38 H17         1.7195    1.4568   -2.4329 H         1 <0>         0.0923
     39 H18         2.5908    1.8585   -0.8900 H         1 <0>         0.0661
     40 H19         3.9362    0.7266   -3.1811 H         1 <0>         0.0712
     41 H20         4.4829    0.4154   -1.4766 H         1 <0>         0.0780
     42 H21         3.4151   -1.7644   -1.8159 H         1 <0>         0.0643
     43 H22         2.3003   -1.0958   -3.0853 H         1 <0>         0.0921
@<TRIPOS>BOND
     1    1    2 1
     2    1   23 1
     3    1   24 1
     4    1   25 1
     5    2    3 1
     6    2    4 1
     7    2   17 1
     8    3   26 1
     9    3   27 1
    10    3   28 1
    11    4   13 2
    12    4    5 1
    13    5    6 1
    14    5    7 1
    15    7   12 ar
    16    7    8 ar
    17    8    9 ar
    18    8   29 1
    19    9   10 ar
    20    9   30 1
    21   10   11 ar
    22   10   31 1
    23   11   12 ar
    24   11   14 1
    25   12   13 1
    26   14   15 2
    27   14   16 am
    28   16   32 1
    29   16   33 1
    30   17   18 1
    31   17   19 1
    32   18   34 1
    33   18   35 1
    34   18   36 1
    35   19   22 1
    36   19   20 1
    37   19   37 1
    38   20   21 1
    39   20   38 1
    40   20   39 1
    41   21   22 1
    42   21   40 1
    43   21   41 1
    44   22   42 1
    45   22   43 1
@<TRIPOS>MOLECULE
CHEMBL1096642
   45    48     0     0     0
SMALL
USER_CHARGES

@<TRIPOS>ATOM
      1 C1         -0.0168    1.3848    0.0097 C.ar      1 <0>        -0.1610
      2 C2          1.1177    2.1322    0.0028 C.ar      1 <0>        -0.0097
      3 C3          2.3826    1.5133   -0.0126 C.ar      1 <0>        -0.1975
      4 C4          3.6910    1.9652   -0.0227 C.2       1 <0>         0.0849
      5 N1          4.4959    0.8918   -0.0362 N.pl3     1 <0>        -0.2960
      6 N2          3.7292   -0.2794   -0.0351 N.2       1 <0>        -0.2631
      7 C5          2.4541    0.0429   -0.0212 C.ar      1 <0>         0.1498
      8 C6          1.1954   -0.7094   -0.0132 C.ar      1 <0>        -0.1270
      9 C7          0.0021   -0.0041    0.0020 C.ar      1 <0>        -0.0148
     10 C8          1.1989   -2.1810   -0.0217 C.2       1 <0>         0.5635
     11 O1          2.2538   -2.7866   -0.0355 O.2       1 <0>        -0.5279
     12 N3          0.0334   -2.8577   -0.0142 N.am      1 <0>        -0.8511
     13 C9          5.8958    0.9364   -0.0493 C.ar      1 <0>         0.1911
     14 C10         6.5530    2.1598   -0.0433 C.ar      1 <0>        -0.1362
     15 C11         7.9334    2.2005   -0.0563 C.ar      1 <0>        -0.0643
     16 C12         8.6611    1.0247   -0.0759 C.ar      1 <0>        -0.1717
     17 C13         8.0097   -0.1951   -0.0819 C.ar      1 <0>        -0.0672
     18 C14         6.6295   -0.2426   -0.0627 C.ar      1 <0>        -0.1077
     19 C15        10.1673    1.0728   -0.0911 C.3       1 <0>         0.0510
     20 N4         10.6711    1.0744    1.2888 N.4       1 <0>        -0.3938
     21 C16        10.4108   -0.2397    1.9306 C.3       1 <0>        -0.0075
     22 C17        11.4453   -0.2823    3.0832 C.3       1 <0>        -0.1454
     23 C18        12.6871    0.3941    2.4585 C.3       1 <0>        -0.1451
     24 C19        12.1406    1.2421    1.2951 C.3       1 <0>        -0.0089
     25 H1         -0.9709    1.8905    0.0261 H         1 <0>         0.1382
     26 H2          1.0489    3.2100    0.0089 H         1 <0>         0.1356
     27 H3          4.0075    2.9978   -0.0204 H         1 <0>         0.1941
     28 H4         -0.9323   -0.5457    0.0084 H         1 <0>         0.1396
     29 H5         -0.8078   -2.3748   -0.0032 H         1 <0>         0.4006
     30 H6          0.0357   -3.8277   -0.0198 H         1 <0>         0.4087
     31 H7          5.9852    3.0784   -0.0287 H         1 <0>         0.1449
     32 H8          8.4451    3.1515   -0.0516 H         1 <0>         0.1435
     33 H9          8.5808   -1.1116   -0.0975 H         1 <0>         0.1415
     34 H10         6.1213   -1.1955   -0.0629 H         1 <0>         0.1552
     35 H11        10.5534    0.2001   -0.6178 H         1 <0>         0.1369
     36 H12        10.4968    1.9791   -0.5992 H         1 <0>         0.1378
     37 H13         9.3950   -0.2814    2.3236 H         1 <0>         0.1335
     38 H14        10.5857   -1.0531    1.2264 H         1 <0>         0.1336
     39 H15        11.0886    0.2850    3.9429 H         1 <0>         0.0972
     40 H16        11.6673   -1.3118    3.3643 H         1 <0>         0.1166
     41 H17        13.1800    1.0317    3.1924 H         1 <0>         0.1048
     42 H18        13.3803   -0.3593    2.0844 H         1 <0>         0.1039
     43 H19        12.5584    0.8911    0.3515 H         1 <0>         0.1315
     44 H20        12.3939    2.2910    1.4491 H         1 <0>         0.1322
     45 H21        10.2342    1.8139    1.8183 H         1 <0>         0.4259
@<TRIPOS>BOND
     1    1    9 ar
     2    1    2 ar
     3    1   25 1
     4    2    3 ar
     5    2   26 1
     6    3    7 ar
     7    3    4 2
     8    4    5 1
     9    4   27 1
    10    5    6 1
    11    5   13 1
    12    6    7 2
    13    7    8 ar
    14    8    9 ar
    15    8   10 1
    16    9   28 1
    17   10   11 2
    18   10   12 am
    19   12   29 1
    20   12   30 1
    21   13   18 ar
    22   13   14 ar
    23   14   15 ar
    24   14   31 1
    25   15   16 ar
    26   15   32 1
    27   16   17 ar
    28   16   19 1
    29   17   18 ar
    30   17   33 1
    31   18   34 1
    32   19   20 1
    33   19   35 1
    34   19   36 1
    35   20   24 1
    36   20   21 1
    37   20   45 1
    38   21   22 1
    39   21   37 1
    40   21   38 1
    41   22   23 1
    42   22   39 1
    43   22   40 1
    44   23   24 1
    45   23   41 1
    46   23   42 1
    47   24   43 1
    48   24   44 1
@<TRIPOS>MOLECULE
CHEMBL521712
   38    40     0     0     0
SMALL
USER_CHARGES

@<TRIPOS>ATOM
      1 C1         -0.0187    1.5258    0.0104 C.3       1 <0>        -0.1820
      2 C2          0.0021   -0.0041    0.0020 C.3       1 <0>         0.1588
      3 C3         -1.4338   -0.5331    0.0090 C.3       1 <0>        -0.1362
      4 C4         -2.1483   -0.0378    1.2697 C.3       1 <0>        -0.1366
      5 C5         -1.3582   -0.4872    2.5022 C.3       1 <0>        -0.1492
      6 C6          0.0749    0.0401    2.4028 C.3       1 <0>        -0.0132
      7 N1          0.7121   -0.4897    1.1914 N.4       1 <0>        -0.4902
      8 C7          0.7089   -0.4894   -1.2373 C.2       1 <0>         0.2301
      9 N2          0.3227   -0.2178   -2.5112 N.pl3     1 <0>        -0.5714
     10 H1         -0.4429    0.3136   -2.7801 H         1 <0>         0.4315
     11 C8          1.2253   -0.8401   -3.3519 C.ar      1 <0>         0.0564
     12 C9          1.3574   -0.9266   -4.7303 C.ar      1 <0>        -0.0803
     13 C10         2.3984   -1.6457   -5.2842 C.ar      1 <0>        -0.0909
     14 C11         3.3203   -2.2868   -4.4772 C.ar      1 <0>        -0.0759
     15 C12         3.2114   -2.2159   -3.0908 C.ar      1 <0>        -0.0834
     16 C13         2.1513   -1.4841   -2.5149 C.ar      1 <0>         0.1013
     17 N3          1.7832   -1.2265   -1.2444 N.2       1 <0>        -0.4621
     18 C14         4.1953   -2.8995   -2.2320 C.2       1 <0>         0.5621
     19 O1          4.0953   -2.8342   -1.0219 O.2       1 <0>        -0.5242
     20 N4          5.2057   -3.5969   -2.7881 N.am      1 <0>        -0.8481
     21 H2          1.0039    1.9031    0.0027 H         1 <0>         0.0910
     22 H3         -0.5459    1.8868   -0.8726 H         1 <0>         0.1047
     23 H4         -0.5289    1.8773    0.9072 H         1 <0>         0.1037
     24 H5         -1.9598   -0.1699   -0.8739 H         1 <0>         0.1096
     25 H6         -1.4201   -1.6230    0.0028 H         1 <0>         0.0973
     26 H7         -2.2074    1.0504    1.2515 H         1 <0>         0.0882
     27 H8         -3.1533   -0.4580    1.3079 H         1 <0>         0.1015
     28 H9         -1.8302   -0.0912    3.4014 H         1 <0>         0.1176
     29 H10        -1.3430   -1.5761    2.5477 H         1 <0>         0.0918
     30 H11         0.0585    1.1291    2.3577 H         1 <0>         0.1353
     31 H12         0.6401   -0.2778    3.2789 H         1 <0>         0.1419
     32 H13         0.6830   -1.4981    1.2108 H         1 <0>         0.4361
     33 H14         0.6442   -0.4305   -5.3719 H         1 <0>         0.1390
     34 H15         2.4931   -1.7083   -6.3582 H         1 <0>         0.1502
     35 H16         4.1288   -2.8458   -4.9245 H         1 <0>         0.1442
     36 H17         5.2854   -3.6490   -3.7534 H         1 <0>         0.4024
     37 H18         5.8531   -4.0467   -2.2230 H         1 <0>         0.4106
     38 H19         1.6729   -0.1836    1.1566 H         1 <0>         0.4384
@<TRIPOS>BOND
     1    1    2 1
     2    1   21 1
     3    1   22 1
     4    1   23 1
     5    2    7 1
     6    2    3 1
     7    2    8 1
     8    3    4 1
     9    3   24 1
    10    3   25 1
    11    4    5 1
    12    4   26 1
    13    4   27 1
    14    5    6 1
    15    5   28 1
    16    5   29 1
    17    6    7 1
    18    6   30 1
    19    6   31 1
    20    7   32 1
    21    7   38 1
    22    8   17 2
    23    8    9 1
    24    9   10 1
    25    9   11 1
    26   11   16 ar
    27   11   12 ar
    28   12   13 ar
    29   12   33 1
    30   13   14 ar
    31   13   34 1
    32   14   15 ar
    33   14   35 1
    34   15   16 ar
    35   15   18 1
    36   16   17 1
    37   18   19 2
    38   18   20 am
    39   20   36 1
    40   20   37 1
@<TRIPOS>MOLECULE
CHEMBL521712__1
   38    40     0     0     0
SMALL
USER_CHARGES

@<TRIPOS>ATOM
      1 C1         -0.0187    1.5258    0.0104 C.3       1 <0>        -0.1818
      2 C2          0.0021   -0.0041    0.0020 C.3       1 <0>         0.1588
      3 C3          0.7150   -0.4970   -1.2590 C.3       1 <0>        -0.1363
      4 C4          2.1513    0.0345   -1.2675 C.3       1 <0>        -0.1366
      5 C5          2.8595   -0.4163    0.0133 C.3       1 <0>        -0.1492
      6 C6          2.0670    0.0736    1.2272 C.3       1 <0>        -0.0132
      7 N1          0.7121   -0.4897    1.1914 N.4       1 <0>        -0.4903
      8 C7         -1.4119   -0.5251    0.0142 C.2       1 <0>         0.2301
      9 N2         -2.3439   -0.2714   -0.9412 N.pl3     1 <0>        -0.5714
     10 H1         -2.2199    0.2672   -1.7383 H         1 <0>         0.4315
     11 C8         -3.5015   -0.9250   -0.5647 C.ar      1 <0>         0.0564
     12 C9         -4.7674   -1.0408   -1.1205 C.ar      1 <0>        -0.0803
     13 C10        -5.7392   -1.7878   -0.4842 C.ar      1 <0>        -0.0909
     14 C11        -5.4663   -2.4289    0.7103 C.ar      1 <0>        -0.0759
     15 C12        -4.2040   -2.3296    1.2896 C.ar      1 <0>        -0.0834
     16 C13        -3.2043   -1.5685    0.6478 C.ar      1 <0>         0.1013
     17 N3         -1.9185   -1.2895    0.9398 N.2       1 <0>        -0.4621
     18 C14        -3.9146   -3.0140    2.5627 C.2       1 <0>         0.5620
     19 O1         -2.8104   -2.9239    3.0642 O.2       1 <0>        -0.5243
     20 N4         -4.8738   -3.7396    3.1709 N.am      1 <0>        -0.8480
     21 H2          1.0039    1.9031    0.0027 H         1 <0>         0.1036
     22 H3         -0.5459    1.8868   -0.8726 H         1 <0>         0.1047
     23 H4         -0.5289    1.8773    0.9072 H         1 <0>         0.0911
     24 H5          0.7302   -1.5868   -1.2662 H         1 <0>         0.0973
     25 H6          0.1874   -0.1338   -2.1410 H         1 <0>         0.1096
     26 H7          2.6807   -0.3599   -2.1348 H         1 <0>         0.1015
     27 H8          2.1367    1.1235   -1.3120 H         1 <0>         0.0883
     28 H9          2.9191   -1.5045    0.0326 H         1 <0>         0.0918
     29 H10         3.8646    0.0045    0.0408 H         1 <0>         0.1176
     30 H11         2.5686   -0.2454    2.1408 H         1 <0>         0.1419
     31 H12         2.0082    1.1619    1.2071 H         1 <0>         0.1353
     32 H13         0.2099   -0.2082    2.0200 H         1 <0>         0.4385
     33 H14        -4.9937   -0.5451   -2.0530 H         1 <0>         0.1390
     34 H15        -6.7222   -1.8719   -0.9236 H         1 <0>         0.1502
     35 H16        -6.2363   -3.0093    1.1966 H         1 <0>         0.1442
     36 H17        -5.7545   -3.8115    2.7709 H         1 <0>         0.4024
     37 H18        -4.6834   -4.1900    4.0087 H         1 <0>         0.4107
     38 H19         0.7683   -1.4967    1.1605 H         1 <0>         0.4360
@<TRIPOS>BOND
     1    1    2 1
     2    1   21 1
     3    1   22 1
     4    1   23 1
     5    2    7 1
     6    2    3 1
     7    2    8 1
     8    3    4 1
     9    3   24 1
    10    3   25 1
    11    4    5 1
    12    4   26 1
    13    4   27 1
    14    5    6 1
    15    5   28 1
    16    5   29 1
    17    6    7 1
    18    6   30 1
    19    6   31 1
    20    7   32 1
    21    7   38 1
    22    8   17 2
    23    8    9 1
    24    9   10 1
    25    9   11 1
    26   11   16 ar
    27   11   12 ar
    28   12   13 ar
    29   12   33 1
    30   13   14 ar
    31   13   34 1
    32   14   15 ar
    33   14   35 1
    34   15   16 ar
    35   15   18 1
    36   16   17 1
    37   18   19 2
    38   18   20 am
    39   20   36 1
    40   20   37 1
@<TRIPOS>MOLECULE
CHEMBL373066
   20    22     0     0     0
SMALL
USER_CHARGES

@<TRIPOS>ATOM
      1 C1         -0.0168    1.3855    0.0097 C.ar      1 <0>        -0.0337
      2 C2          1.1641    2.1028    0.0022 C.ar      1 <0>        -0.1021
      3 C3          2.3880    1.4457   -0.0134 C.ar      1 <0>         0.1166
      4 C4          2.4261    0.0324   -0.0213 C.ar      1 <0>        -0.0438
      5 C5          3.8404   -0.3323   -0.0377 C.2       1 <0>        -0.1982
      6 C6          4.5429    0.8146   -0.0388 C.2       1 <0>         0.0698
      7 N1          3.6922    1.8837   -0.0244 N.pl3     1 <0>        -0.5910
      8 H1          3.9671    2.8139   -0.0226 H         1 <0>         0.4239
      9 C7          1.2296   -0.6930   -0.0129 C.ar      1 <0>        -0.0929
     10 C8          0.0021   -0.0041    0.0020 C.ar      1 <0>        -0.1592
     11 C9         -1.0453   -1.0460    0.0060 C.2       1 <0>         0.5814
     12 O1         -2.2435   -0.8473    0.0180 O.2       1 <0>        -0.4643
     13 N2         -0.4490   -2.2518   -0.0063 N.am      1 <0>        -0.6829
     14 C10         0.8902   -2.1266   -0.0171 C.2       1 <0>         0.5780
     15 O2          1.6874   -3.0435   -0.0303 O.2       1 <0>        -0.4597
     16 H2         -0.9615    1.9086    0.0260 H         1 <0>         0.1471
     17 H3          1.1355    3.1824    0.0083 H         1 <0>         0.1406
     18 H4          4.2454   -1.3335   -0.0469 H         1 <0>         0.1585
     19 H5          5.6208    0.8808   -0.0490 H         1 <0>         0.1815
     20 H6         -0.9218   -3.0987   -0.0061 H         1 <0>         0.4303
@<TRIPOS>BOND
     1    1   10 ar
     2    1    2 ar
     3    1   16 1
     4    2    3 ar
     5    2   17 1
     6    3    7 1
     7    3    4 ar
     8    4    5 1
     9    4    9 ar
    10    5    6 2
    11    5   18 1
    12    6    7 1
    13    6   19 1
    14    7    8 1
    15    9   14 1
    16    9   10 ar
    17   10   11 1
    18   11   12 2
    19   11   13 am
    20   13   14 am
    21   13   20 1
    22   14   15 2
@<TRIPOS>MOLECULE
CHEMBL482055
   47    49     0     0     0
SMALL
USER_CHARGES

@<TRIPOS>ATOM
      1 C1         -0.0187    1.5258    0.0104 C.3       1 <0>        -0.1826
      2 C2          0.0021   -0.0041    0.0020 C.3       1 <0>         0.1574
      3 C3          0.7421   -0.5109    1.2415 C.3       1 <0>        -0.1826
      4 C4         -1.4117   -0.5257    0.0127 C.2       1 <0>         0.2294
      5 N1         -1.9340   -1.2835   -0.9067 N.2       1 <0>        -0.4825
      6 C5         -3.2225   -1.5678   -0.5831 C.ar      1 <0>         0.0399
      7 C6         -4.2256   -2.3199   -1.1998 C.ar      1 <0>        -0.0236
      8 C7         -5.4689   -2.4261   -0.6143 C.ar      1 <0>        -0.1274
      9 C8         -5.7416   -1.7938    0.5854 C.ar      1 <0>        -0.0390
     10 C9         -4.7578   -1.0379    1.2211 C.ar      1 <0>        -0.1369
     11 C10        -3.4895   -0.9227    0.6351 C.ar      1 <0>         0.1193
     12 N2         -2.3276   -0.2778    0.9887 N.pl3     1 <0>        -0.5569
     13 C11        -5.0496   -0.3635    2.5003 C.2       1 <0>         0.5682
     14 O1         -4.1882    0.2947    3.0509 O.2       1 <0>        -0.5550
     15 N3         -6.2710   -0.4770    3.0587 N.am      1 <0>        -0.8405
     16 N4          0.6897   -0.4778   -1.2066 N.4       1 <0>        -0.4939
     17 C12         2.0678    0.0307   -1.2170 C.3       1 <0>        -0.0162
     18 C13         2.7840   -0.4628   -2.4758 C.3       1 <0>        -0.0980
     19 C14         4.1978    0.0589   -2.4865 C.ar      1 <0>        -0.1080
     20 C15         4.4807    1.2766   -3.0764 C.ar      1 <0>        -0.1098
     21 C16         5.7776    1.7551   -3.0862 C.ar      1 <0>        -0.1142
     22 C17         6.7914    1.0160   -2.5058 C.ar      1 <0>        -0.1040
     23 C18         6.5083   -0.2013   -1.9151 C.ar      1 <0>        -0.1142
     24 C19         5.2107   -0.6778   -1.9015 C.ar      1 <0>        -0.1098
     25 H1          1.0039    1.9031    0.0027 H         1 <0>         0.1023
     26 H2         -0.5459    1.8868   -0.8726 H         1 <0>         0.0920
     27 H3         -0.5289    1.8773    0.9072 H         1 <0>         0.1075
     28 H4          0.2319   -0.1594    2.1383 H         1 <0>         0.1075
     29 H5          0.7568   -1.6008    1.2356 H         1 <0>         0.0920
     30 H6          1.7647   -0.1336    1.2338 H         1 <0>         0.1023
     31 H7         -4.0266   -2.8185   -2.1369 H         1 <0>         0.1445
     32 H8         -6.2388   -3.0091   -1.0978 H         1 <0>         0.1499
     33 H9         -6.7209   -1.8859    1.0313 H         1 <0>         0.1448
     34 H10        -6.9582   -1.0021    2.6195 H         1 <0>         0.4054
     35 H11        -6.4628   -0.0335    3.8998 H         1 <0>         0.4129
     36 H12         0.7033   -1.4867   -1.2121 H         1 <0>         0.4353
     37 H13         2.0530    1.1205   -1.2110 H         1 <0>         0.1385
     38 H14         2.5950   -0.3304   -0.3340 H         1 <0>         0.1385
     39 H15         2.7987   -1.5526   -2.4818 H         1 <0>         0.0975
     40 H16         2.2568   -0.1017   -3.3589 H         1 <0>         0.0975
     41 H17         3.6887    1.8540   -3.5298 H         1 <0>         0.1247
     42 H18         5.9988    2.7062   -3.5476 H         1 <0>         0.1293
     43 H19         7.8047    1.3895   -2.5141 H         1 <0>         0.1294
     44 H20         7.3004   -0.7789   -1.4620 H         1 <0>         0.1293
     45 H21         4.9889   -1.6271   -1.4368 H         1 <0>         0.1247
     46 H22        -2.1872    0.2570    1.7857 H         1 <0>         0.4399
     47 H23         0.2017   -0.1436   -2.0240 H         1 <0>         0.4352
@<TRIPOS>BOND
     1    1    2 1
     2    1   25 1
     3    1   26 1
     4    1   27 1
     5    2    3 1
     6    2    4 1
     7    2   16 1
     8    3   28 1
     9    3   29 1
    10    3   30 1
    11    4   12 1
    12    4    5 2
    13    5    6 1
    14    6   11 ar
    15    6    7 ar
    16    7    8 ar
    17    7   31 1
    18    8    9 ar
    19    8   32 1
    20    9   10 ar
    21    9   33 1
    22   10   11 ar
    23   10   13 1
    24   11   12 1
    25   12   46 1
    26   13   14 2
    27   13   15 am
    28   15   34 1
    29   15   35 1
    30   16   17 1
    31   16   36 1
    32   16   47 1
    33   17   18 1
    34   17   37 1
    35   17   38 1
    36   18   19 1
    37   18   39 1
    38   18   40 1
    39   19   24 ar
    40   19   20 ar
    41   20   21 ar
    42   20   41 1
    43   21   22 ar
    44   21   42 1
    45   22   23 ar
    46   22   43 1
    47   23   24 ar
    48   23   44 1
    49   24   45 1
@<TRIPOS>MOLECULE
CHEMBL482055__1
   47    49     0     0     0
SMALL
USER_CHARGES

@<TRIPOS>ATOM
      1 C1         -0.0187    1.5258    0.0104 C.3       1 <0>        -0.1814
      2 C2          0.0021   -0.0041    0.0020 C.3       1 <0>         0.1573
      3 C3          0.7421   -0.5109    1.2415 C.3       1 <0>        -0.1814
      4 C4         -1.4117   -0.5257    0.0127 C.2       1 <0>         0.2296
      5 N1         -2.3276   -0.2740    0.9841 N.pl3     1 <0>        -0.5711
      6 H1         -2.1906    0.2639    1.7796 H         1 <0>         0.4317
      7 C5         -3.4911   -0.9275    0.6261 C.ar      1 <0>         0.0567
      8 C6         -4.7477   -1.0441    1.2025 C.ar      1 <0>        -0.0804
      9 C7         -5.7297   -1.7907    0.5814 C.ar      1 <0>        -0.0908
     10 C8         -5.4766   -2.4297   -0.6185 C.ar      1 <0>        -0.0760
     11 C9         -4.2243   -2.3288   -1.2188 C.ar      1 <0>        -0.0832
     12 C10        -3.2140   -1.5689   -0.5924 C.ar      1 <0>         0.1014
     13 N2         -1.9369   -1.2797   -0.9110 N.2       1 <0>        -0.4612
     14 C11        -3.9563   -3.0103   -2.4982 C.2       1 <0>         0.5620
     15 O1         -2.8608   -2.9188   -3.0181 O.2       1 <0>        -0.5238
     16 N3         -4.9255   -3.7348   -3.0917 N.am      1 <0>        -0.8482
     17 N4          0.6897   -0.4778   -1.2066 N.4       1 <0>        -0.4946
     18 C12         2.0678    0.0307   -1.2170 C.3       1 <0>        -0.0151
     19 C13         2.7840   -0.4628   -2.4758 C.3       1 <0>        -0.0993
     20 C14         4.1978    0.0589   -2.4865 C.ar      1 <0>        -0.1066
     21 C15         4.4807    1.2766   -3.0764 C.ar      1 <0>        -0.1100
     22 C16         5.7776    1.7551   -3.0862 C.ar      1 <0>        -0.1143
     23 C17         6.7914    1.0160   -2.5058 C.ar      1 <0>        -0.1047
     24 C18         6.5083   -0.2013   -1.9151 C.ar      1 <0>        -0.1142
     25 C19         5.2107   -0.6778   -1.9015 C.ar      1 <0>        -0.1100
     26 H2          1.0039    1.9031    0.0027 H         1 <0>         0.1019
     27 H3         -0.5459    1.8868   -0.8726 H         1 <0>         0.0920
     28 H4         -0.5289    1.8773    0.9072 H         1 <0>         0.1056
     29 H5          0.2319   -0.1594    2.1383 H         1 <0>         0.1057
     30 H6          0.7568   -1.6008    1.2356 H         1 <0>         0.0920
     31 H7          1.7647   -0.1336    1.2338 H         1 <0>         0.1019
     32 H8         -4.9584   -0.5500    2.1394 H         1 <0>         0.1390
     33 H9         -6.7048   -1.8766    1.0376 H         1 <0>         0.1501
     34 H10        -6.2542   -3.0104   -1.0923 H         1 <0>         0.1441
     35 H11        -5.7994   -3.8078   -2.6770 H         1 <0>         0.4023
     36 H12        -4.7492   -4.1832   -3.9336 H         1 <0>         0.4106
     37 H13         0.7033   -1.4867   -1.2121 H         1 <0>         0.4371
     38 H14         2.0530    1.1205   -1.2110 H         1 <0>         0.1377
     39 H15         2.5950   -0.3304   -0.3340 H         1 <0>         0.1377
     40 H16         2.7987   -1.5526   -2.4818 H         1 <0>         0.0981
     41 H17         2.2568   -0.1017   -3.3589 H         1 <0>         0.0981
     42 H18         3.6887    1.8540   -3.5298 H         1 <0>         0.1247
     43 H19         5.9988    2.7062   -3.5476 H         1 <0>         0.1291
     44 H20         7.8047    1.3895   -2.5141 H         1 <0>         0.1292
     45 H21         7.3004   -0.7789   -1.4620 H         1 <0>         0.1291
     46 H22         4.9889   -1.6271   -1.4368 H         1 <0>         0.1247
     47 H23         0.2017   -0.1436   -2.0240 H         1 <0>         0.4370
@<TRIPOS>BOND
     1    1    2 1
     2    1   26 1
     3    1   27 1
     4    1   28 1
     5    2    3 1
     6    2    4 1
     7    2   17 1
     8    3   29 1
     9    3   30 1
    10    3   31 1
    11    4   13 2
    12    4    5 1
    13    5    6 1
    14    5    7 1
    15    7   12 ar
    16    7    8 ar
    17    8    9 ar
    18    8   32 1
    19    9   10 ar
    20    9   33 1
    21   10   11 ar
    22   10   34 1
    23   11   12 ar
    24   11   14 1
    25   12   13 1
    26   14   15 2
    27   14   16 am
    28   16   35 1
    29   16   36 1
    30   17   18 1
    31   17   37 1
    32   17   47 1
    33   18   19 1
    34   18   38 1
    35   18   39 1
    36   19   20 1
    37   19   40 1
    38   19   41 1
    39   20   25 ar
    40   20   21 ar
    41   21   22 ar
    42   21   42 1
    43   22   23 ar
    44   22   43 1
    45   23   24 ar
    46   23   44 1
    47   24   25 ar
    48   24   45 1
    49   25   46 1
@<TRIPOS>MOLECULE
CHEMBL482055__2
   46    48     0     0     0
SMALL
USER_CHARGES

@<TRIPOS>ATOM
      1 C1         -0.0187    1.5258    0.0104 C.3       1 <0>        -0.1442
      2 C2          0.0021   -0.0041    0.0020 C.3       1 <0>         0.1939
      3 C3          0.7421   -0.5109    1.2415 C.3       1 <0>        -0.1864
      4 C4         -1.4117   -0.5257    0.0127 C.2       1 <0>         0.2980
      5 N1         -2.3276   -0.2740    0.9841 N.pl3     1 <0>        -0.5943
      6 H1         -2.1906    0.2639    1.7796 H         1 <0>         0.4226
      7 C5         -3.4911   -0.9275    0.6261 C.ar      1 <0>         0.0351
      8 C6         -4.7477   -1.0441    1.2025 C.ar      1 <0>        -0.0796
      9 C7         -5.7297   -1.7907    0.5814 C.ar      1 <0>        -0.1149
     10 C8         -5.4766   -2.4297   -0.6185 C.ar      1 <0>        -0.0881
     11 C9         -4.2243   -2.3288   -1.2188 C.ar      1 <0>        -0.0891
     12 C10        -3.2140   -1.5689   -0.5924 C.ar      1 <0>         0.1017
     13 N2         -1.9369   -1.2797   -0.9110 N.2       1 <0>        -0.4437
     14 C11        -3.9563   -3.0103   -2.4982 C.2       1 <0>         0.5562
     15 O1         -2.8608   -2.9188   -3.0181 O.2       1 <0>        -0.5072
     16 N3         -4.9255   -3.7348   -3.0917 N.am      1 <0>        -0.8565
     17 N4          0.6897   -0.4778   -1.2066 N.3       1 <0>        -0.6606
     18 C12         2.0738    0.0123   -1.2511 C.3       1 <0>         0.0610
     19 C13         2.7558   -0.5006   -2.5210 C.3       1 <0>        -0.0795
     20 C14         4.1757    0.0021   -2.5667 C.ar      1 <0>        -0.0799
     21 C15         4.4617    1.2113   -3.1726 C.ar      1 <0>        -0.1154
     22 C16         5.7641    1.6725   -3.2145 C.ar      1 <0>        -0.1184
     23 C17         6.7806    0.9247   -2.6501 C.ar      1 <0>        -0.1249
     24 C18         6.4946   -0.2840   -2.0435 C.ar      1 <0>        -0.1189
     25 C19         5.1915   -0.7431   -1.9978 C.ar      1 <0>        -0.1179
     26 H2          1.0039    1.9031    0.0027 H         1 <0>         0.0748
     27 H3         -0.5459    1.8868   -0.8726 H         1 <0>         0.0736
     28 H4         -0.5289    1.8773    0.9072 H         1 <0>         0.0590
     29 H5          0.2319   -0.1594    2.1383 H         1 <0>         0.0628
     30 H6          0.7568   -1.6008    1.2356 H         1 <0>         0.0646
     31 H7          1.7647   -0.1336    1.2338 H         1 <0>         0.0781
     32 H8         -4.9584   -0.5500    2.1394 H         1 <0>         0.1283
     33 H9         -6.7048   -1.8766    1.0376 H         1 <0>         0.1385
     34 H10        -6.2542   -3.0104   -1.0923 H         1 <0>         0.1342
     35 H11        -5.7994   -3.8078   -2.6770 H         1 <0>         0.3979
     36 H12        -4.7492   -4.1832   -3.9336 H         1 <0>         0.4048
     37 H13         0.6604   -1.4845   -1.2682 H         1 <0>         0.3567
     38 H14         2.0734    1.1023   -1.2538 H         1 <0>         0.0787
     39 H15         2.6153   -0.3487   -0.3768 H         1 <0>         0.0364
     40 H16         2.7562   -1.5906   -2.5183 H         1 <0>         0.0728
     41 H17         2.2143   -0.1396   -3.3954 H         1 <0>         0.0845
     42 H18         3.6675    1.7955   -3.6135 H         1 <0>         0.1225
     43 H19         5.9876    2.6168   -3.6885 H         1 <0>         0.1215
     44 H20         7.7983    1.2847   -2.6835 H         1 <0>         0.1205
     45 H21         7.2888   -0.8684   -1.6028 H         1 <0>         0.1209
     46 H22         4.9675   -1.6857   -1.5205 H         1 <0>         0.1198
@<TRIPOS>BOND
     1    1    2 1
     2    1   26 1
     3    1   27 1
     4    1   28 1
     5    2    3 1
     6    2    4 1
     7    2   17 1
     8    3   29 1
     9    3   30 1
    10    3   31 1
    11    4   13 2
    12    4    5 1
    13    5    6 1
    14    5    7 1
    15    7   12 ar
    16    7    8 ar
    17    8    9 ar
    18    8   32 1
    19    9   10 ar
    20    9   33 1
    21   10   11 ar
    22   10   34 1
    23   11   12 ar
    24   11   14 1
    25   12   13 1
    26   14   15 2
    27   14   16 am
    28   16   35 1
    29   16   36 1
    30   17   18 1
    31   17   37 1
    32   18   19 1
    33   18   38 1
    34   18   39 1
    35   19   20 1
    36   19   40 1
    37   19   41 1
    38   20   25 ar
    39   20   21 ar
    40   21   22 ar
    41   21   42 1
    42   22   23 ar
    43   22   43 1
    44   23   24 ar
    45   23   44 1
    46   24   25 ar
    47   24   45 1
    48   25   46 1
@<TRIPOS>MOLECULE
CHEMBL596925
   47    50     0     0     0
SMALL
USER_CHARGES

@<TRIPOS>ATOM
      1 C1         -0.0166    1.3766    0.0096 C.ar      1 <0>        -0.0802
      2 C2          1.1707    2.0859    0.0021 C.ar      1 <0>        -0.1228
      3 C3          2.3799    1.4156   -0.0131 C.ar      1 <0>        -0.1278
      4 C4          2.4057    0.0346   -0.0212 C.ar      1 <0>        -0.1381
      5 C5          1.2153   -0.6806   -0.0137 C.ar      1 <0>         0.1907
      6 C6          0.0021   -0.0041    0.0020 C.ar      1 <0>        -0.1301
      7 N1          1.2378   -2.0787   -0.0224 N.am      1 <0>        -0.5623
      8 C7          0.0595   -2.9532   -0.0218 C.3       1 <0>         0.1358
      9 C8          0.5835   -4.3678   -0.0337 C.ar      1 <0>        -0.0878
     10 C9         -0.0326   -5.6013   -0.0380 C.ar      1 <0>        -0.0731
     11 C10         0.7260   -6.7594   -0.0485 C.ar      1 <0>        -0.0825
     12 C11         2.1068   -6.6891   -0.0548 C.ar      1 <0>        -0.0915
     13 C12         2.7438   -5.4516   -0.0511 C.ar      1 <0>        -0.0619
     14 C13         1.9734   -4.2736   -0.0403 C.ar      1 <0>        -0.1096
     15 C14         2.3425   -2.8446   -0.0385 C.2       1 <0>         0.5541
     16 O1          3.4818   -2.4211   -0.0474 O.2       1 <0>        -0.4536
     17 C15         4.2212   -5.3747   -0.0573 C.2       1 <0>         0.5445
     18 O2          4.7734   -4.2921   -0.0540 O.2       1 <0>        -0.4968
     19 N2          4.9547   -6.5054   -0.0667 N.am      1 <0>        -0.8498
     20 C16         3.6711    2.1926   -0.0212 C.3       1 <0>         0.0494
     21 N3          4.1039    2.4376    1.3610 N.4       1 <0>        -0.3921
     22 C17         4.5151    1.1626    2.0026 C.3       1 <0>        -0.0054
     23 C18         5.4337    1.6283    3.1601 C.3       1 <0>        -0.1445
     24 C19         6.1903    2.8257    2.5407 C.3       1 <0>        -0.1443
     25 C20         5.3046    3.3011    1.3740 C.3       1 <0>        -0.0087
     26 H1         -0.9594    1.9032    0.0260 H         1 <0>         0.1415
     27 H2          1.1533    3.1658    0.0077 H         1 <0>         0.1329
     28 H3          3.3505   -0.4884   -0.0338 H         1 <0>         0.1620
     29 H4         -0.9254   -0.5573    0.0083 H         1 <0>         0.1382
     30 H5         -0.5342   -2.7812    0.8760 H         1 <0>         0.1096
     31 H6         -0.5435   -2.7697   -0.9111 H         1 <0>         0.1097
     32 H7         -1.1108   -5.6643   -0.0327 H         1 <0>         0.1443
     33 H8          0.2369   -7.7223   -0.0515 H         1 <0>         0.1487
     34 H9          2.6924   -7.5965   -0.0623 H         1 <0>         0.1426
     35 H10         4.5140   -7.3694   -0.0693 H         1 <0>         0.4007
     36 H11         5.9234   -6.4550   -0.0708 H         1 <0>         0.4095
     37 H12         4.4363    1.6201   -0.5455 H         1 <0>         0.1360
     38 H13         3.5187    3.1452   -0.5285 H         1 <0>         0.1379
     39 H14         3.6470    0.6299    2.3908 H         1 <0>         0.1311
     40 H15         5.0678    0.5391    1.2999 H         1 <0>         0.1354
     41 H16         4.8416    1.9480    4.0176 H         1 <0>         0.0963
     42 H17         6.1285    0.8376    3.4431 H         1 <0>         0.1158
     43 H18         6.3061    3.6216    3.2764 H         1 <0>         0.1044
     44 H19         7.1647    2.5070    2.1705 H         1 <0>         0.1036
     45 H20         5.8448    3.2001    0.4327 H         1 <0>         0.1310
     46 H21         5.0132    4.3400    1.5284 H         1 <0>         0.1320
     47 H22         3.3594    2.8690    1.8879 H         1 <0>         0.4251
@<TRIPOS>BOND
     1    1    6 ar
     2    1    2 ar
     3    1   26 1
     4    2    3 ar
     5    2   27 1
     6    3    4 ar
     7    3   20 1
     8    4    5 ar
     9    4   28 1
    10    5    6 ar
    11    5    7 1
    12    6   29 1
    13    7   15 am
    14    7    8 1
    15    8    9 1
    16    8   30 1
    17    8   31 1
    18    9   14 ar
    19    9   10 ar
    20   10   11 ar
    21   10   32 1
    22   11   12 ar
    23   11   33 1
    24   12   13 ar
    25   12   34 1
    26   13   14 ar
    27   13   17 1
    28   14   15 1
    29   15   16 2
    30   17   18 2
    31   17   19 am
    32   19   35 1
    33   19   36 1
    34   20   21 1
    35   20   37 1
    36   20   38 1
    37   21   25 1
    38   21   22 1
    39   21   47 1
    40   22   23 1
    41   22   39 1
    42   22   40 1
    43   23   24 1
    44   23   41 1
    45   23   42 1
    46   24   25 1
    47   24   43 1
    48   24   44 1
    49   25   45 1
    50   25   46 1
@<TRIPOS>MOLECULE
CHEMBL607848
   47    50     0     0     0
SMALL
USER_CHARGES

@<TRIPOS>ATOM
      1 C1         -0.0167    1.3779    0.0096 C.ar      1 <0>        -0.0859
      2 C2          1.1693    2.0932    0.0021 C.ar      1 <0>        -0.0742
      3 C3          2.3785    1.4318   -0.0134 C.ar      1 <0>        -0.0892
      4 C4          2.4208    0.0390   -0.0214 C.ar      1 <0>        -0.1055
      5 C5          1.2153   -0.6869   -0.0137 C.ar      1 <0>        -0.0623
      6 C6          0.0021   -0.0041    0.0020 C.ar      1 <0>        -0.0922
      7 C7          1.2370   -2.1661   -0.0217 C.2       1 <0>         0.5418
      8 O1          2.2982   -2.7582   -0.0349 O.2       1 <0>        -0.4914
      9 N1          0.0798   -2.8571   -0.0143 N.am      1 <0>        -0.8510
     10 C8          3.8350   -0.3830   -0.0377 C.2       1 <0>         0.5486
     11 O2          4.2158   -1.5372   -0.0480 O.2       1 <0>        -0.4453
     12 N2          4.6415    0.6926   -0.0399 N.am      1 <0>        -0.5627
     13 C9          3.8117    1.9026   -0.0252 C.3       1 <0>         0.1378
     14 C10         6.0394    0.6630   -0.0540 C.ar      1 <0>         0.1953
     15 C11         6.7607    1.8500   -0.0484 C.ar      1 <0>        -0.1566
     16 C12         8.1413    1.8173   -0.0619 C.ar      1 <0>        -0.0759
     17 C13         8.8056    0.6046   -0.0813 C.ar      1 <0>        -0.1291
     18 C14         8.0905   -0.5789   -0.0868 C.ar      1 <0>        -0.0808
     19 C15         6.7098   -0.5534   -0.0677 C.ar      1 <0>        -0.1533
     20 C16        10.3122    0.5728   -0.0969 C.3       1 <0>        -0.0487
     21 C17        10.7960   -0.1550   -1.3544 C.3       1 <0>        -0.1435
     22 C18        12.3227   -0.2536   -1.3245 C.3       1 <0>        -0.0069
     23 N3         12.7453   -0.9991   -0.1327 N.4       1 <0>        -0.5061
     24 C19        12.3473   -0.2703    1.0777 C.3       1 <0>        -0.0068
     25 C20        10.8215   -0.1724    1.1402 C.3       1 <0>        -0.1435
     26 H1         -0.9606    1.9025    0.0260 H         1 <0>         0.1471
     27 H2          1.1465    3.1729    0.0082 H         1 <0>         0.1427
     28 H3         -0.9265   -0.5555    0.0083 H         1 <0>         0.1416
     29 H4         -0.7672   -2.3845   -0.0037 H         1 <0>         0.3996
     30 H5          0.0940   -3.8269   -0.0195 H         1 <0>         0.4090
     31 H6          4.0028    2.4987   -0.9175 H         1 <0>         0.1070
     32 H7          4.0205    2.4891    0.8695 H         1 <0>         0.1069
     33 H8          6.2425    2.7975   -0.0340 H         1 <0>         0.1311
     34 H9          8.7028    2.7399   -0.0576 H         1 <0>         0.1290
     35 H10         8.6123   -1.5244   -0.1020 H         1 <0>         0.1225
     36 H11         6.1519   -1.4781   -0.0676 H         1 <0>         0.1580
     37 H12        10.6983    1.5921   -0.0930 H         1 <0>         0.0950
     38 H13        10.3671   -1.1567   -1.3829 H         1 <0>         0.0907
     39 H14        10.4844    0.4004   -2.2390 H         1 <0>         0.1140
     40 H15        12.6706   -0.7711   -2.2185 H         1 <0>         0.1337
     41 H16        12.7506    0.7486   -1.2962 H         1 <0>         0.1308
     42 H17        12.3097   -1.9092   -0.1347 H         1 <0>         0.4281
     43 H18        12.7133   -0.8003    1.9571 H         1 <0>         0.1336
     44 H19        12.7746    0.7321    1.0547 H         1 <0>         0.1308
     45 H20        10.5281    0.3705    2.0386 H         1 <0>         0.1140
     46 H21        10.3931   -1.1745    1.1634 H         1 <0>         0.0907
     47 H22        13.7483   -1.1084   -0.1438 H         1 <0>         0.4315
@<TRIPOS>BOND
     1    1    6 ar
     2    1    2 ar
     3    1   26 1
     4    2    3 ar
     5    2   27 1
     6    3   13 1
     7    3    4 ar
     8    4    5 ar
     9    4   10 1
    10    5    6 ar
    11    5    7 1
    12    6   28 1
    13    7    8 2
    14    7    9 am
    15    9   29 1
    16    9   30 1
    17   10   11 2
    18   10   12 am
    19   12   13 1
    20   12   14 1
    21   13   31 1
    22   13   32 1
    23   14   19 ar
    24   14   15 ar
    25   15   16 ar
    26   15   33 1
    27   16   17 ar
    28   16   34 1
    29   17   18 ar
    30   17   20 1
    31   18   19 ar
    32   18   35 1
    33   19   36 1
    34   20   25 1
    35   20   21 1
    36   20   37 1
    37   21   22 1
    38   21   38 1
    39   21   39 1
    40   22   23 1
    41   22   40 1
    42   22   41 1
    43   23   24 1
    44   23   42 1
    45   23   47 1
    46   24   25 1
    47   24   43 1
    48   24   44 1
    49   25   45 1
    50   25   46 1
@<TRIPOS>MOLECULE
CHEMBL201907
   27    30     0     0     0
SMALL
USER_CHARGES

@<TRIPOS>ATOM
      1 C1         -0.0177    1.4564    0.0100 C.2       1 <0>        -0.1968
      2 C2          1.2631    1.8671    0.0000 C.2       1 <0>         0.0686
      3 N1          2.1000    0.7871   -0.0136 N.pl3     1 <0>        -0.5908
      4 H1          3.0688    0.8334   -0.0223 H         1 <0>         0.4228
      5 C3          1.3646   -0.3759   -0.0123 C.ar      1 <0>         0.1323
      6 C4          0.0021   -0.0041    0.0020 C.ar      1 <0>        -0.0415
      7 C5         -0.9843   -0.9961    0.0049 C.ar      1 <0>        -0.0937
      8 C6         -0.6020   -2.3493   -0.0055 C.ar      1 <0>        -0.1464
      9 C7          0.7462   -2.7018   -0.0190 C.ar      1 <0>        -0.0121
     10 C8          1.7213   -1.7220   -0.0215 C.ar      1 <0>        -0.0848
     11 C9          3.0926   -2.3651   -0.0363 C.3       1 <0>        -0.0817
     12 C10         2.8589   -3.8258    0.4025 C.3       1 <0>        -0.1193
     13 C11         1.3975   -4.0697   -0.0318 C.3       1 <0>        -0.0852
     14 C12        -1.8598   -3.1246    0.0014 C.2       1 <0>         0.5805
     15 O1         -1.9466   -4.3361   -0.0042 O.2       1 <0>        -0.4634
     16 N2         -2.8926   -2.2627    0.0147 N.am      1 <0>        -0.6834
     17 C13        -2.4575   -0.9899    0.0177 C.2       1 <0>         0.5801
     18 O2         -3.1621    0.0000    0.0286 O.2       1 <0>        -0.4600
     19 H2         -0.8944    2.0869    0.0258 H         1 <0>         0.1590
     20 H3          1.5829    2.8987    0.0024 H         1 <0>         0.1812
     21 H4          3.5136   -2.3349   -1.0413 H         1 <0>         0.0865
     22 H5          3.7546   -1.8602    0.6672 H         1 <0>         0.0773
     23 H6          3.5354   -4.5010   -0.1216 H         1 <0>         0.0841
     24 H7          2.9670   -3.9282    1.4823 H         1 <0>         0.0777
     25 H8          0.9000   -4.7320    0.6767 H         1 <0>         0.0878
     26 H9          1.3645   -4.4948   -1.0350 H         1 <0>         0.0912
     27 H10        -3.8267   -2.5243    0.0211 H         1 <0>         0.4299
@<TRIPOS>BOND
     1    1    6 1
     2    1    2 2
     3    1   19 1
     4    2    3 1
     5    2   20 1
     6    3    4 1
     7    3    5 1
     8    5   10 ar
     9    5    6 ar
    10    6    7 ar
    11    7   17 1
    12    7    8 ar
    13    8    9 ar
    14    8   14 1
    15    9   13 1
    16    9   10 ar
    17   10   11 1
    18   11   12 1
    19   11   21 1
    20   11   22 1
    21   12   13 1
    22   12   23 1
    23   12   24 1
    24   13   25 1
    25   13   26 1
    26   14   15 2
    27   14   16 am
    28   16   17 am
    29   16   27 1
    30   17   18 2
@<TRIPOS>MOLECULE
CHEMBL460259
   34    36     0     0     0
SMALL
USER_CHARGES

@<TRIPOS>ATOM
      1 C1         -0.0167    1.3769    0.0096 C.ar      1 <0>        -0.0975
      2 C2          1.1632    2.0980    0.0022 C.ar      1 <0>        -0.0801
      3 C3          2.3901    1.4397   -0.0135 C.ar      1 <0>        -0.0844
      4 C4          2.4203    0.0291   -0.0214 C.ar      1 <0>         0.0980
      5 C5          1.2109   -0.6850   -0.0132 C.ar      1 <0>         0.0483
      6 C6          0.0021   -0.0041    0.0020 C.ar      1 <0>        -0.0812
      7 N1          1.5594   -2.0218   -0.0239 N.pl3     1 <0>        -0.5783
      8 H1          0.9495   -2.7761   -0.0221 H         1 <0>         0.4291
      9 C7          2.9166   -2.0818   -0.0377 C.2       1 <0>         0.2607
     10 N2          3.4163   -0.8785   -0.0362 N.2       1 <0>        -0.4484
     11 C8          3.7253   -3.3533   -0.0521 C.3       1 <0>         0.1550
     12 C9          4.6836   -3.3355   -1.2450 C.3       1 <0>         0.0052
     13 N3          5.4574   -4.5837   -1.2704 N.4       1 <0>        -0.5060
     14 C10         4.5442   -5.7252   -1.4128 C.3       1 <0>        -0.0080
     15 C11         3.5848   -5.7630   -0.2213 C.3       1 <0>         0.0331
     16 N4          2.8227   -4.5073   -0.1697 N.3       1 <0>        -0.6925
     17 C12         3.6468    2.2101   -0.0224 C.2       1 <0>         0.5600
     18 O1          4.7155    1.6299   -0.0361 O.2       1 <0>        -0.5196
     19 N5          3.6115    3.5573   -0.0152 N.am      1 <0>        -0.8506
     20 H2         -0.9621    1.8987    0.0260 H         1 <0>         0.1467
     21 H3          1.1329    3.1775    0.0083 H         1 <0>         0.1413
     22 H4         -0.9266   -0.5554    0.0083 H         1 <0>         0.1352
     23 H5          4.2968   -3.4314    0.8728 H         1 <0>         0.0985
     24 H6          4.1122   -3.2435   -2.1687 H         1 <0>         0.1429
     25 H7          5.3633   -2.4884   -1.1524 H         1 <0>         0.1560
     26 H8          6.0979   -4.5663   -2.0498 H         1 <0>         0.4398
     27 H9          3.9735   -5.6210   -2.3356 H         1 <0>         0.1412
     28 H10         5.1206   -6.6498   -1.4446 H         1 <0>         0.1437
     29 H11         2.8973   -6.6012   -0.3343 H         1 <0>         0.1318
     30 H12         4.1543   -5.8809    0.7006 H         1 <0>         0.0676
     31 H13         2.1534   -4.5213    0.5853 H         1 <0>         0.3733
     32 H14         2.7590    4.0201   -0.0042 H         1 <0>         0.4013
     33 H15         4.4385    4.0642   -0.0210 H         1 <0>         0.4090
     34 H16         5.9773   -4.6744   -0.4104 H         1 <0>         0.4289
@<TRIPOS>BOND
     1    1    6 ar
     2    1    2 ar
     3    1   20 1
     4    2    3 ar
     5    2   21 1
     6    3    4 ar
     7    3   17 1
     8    4   10 1
     9    4    5 ar
    10    5    6 ar
    11    5    7 1
    12    6   22 1
    13    7    8 1
    14    7    9 1
    15    9   10 2
    16    9   11 1
    17   11   16 1
    18   11   12 1
    19   11   23 1
    20   12   13 1
    21   12   24 1
    22   12   25 1
    23   13   14 1
    24   13   26 1
    25   13   34 1
    26   14   15 1
    27   14   27 1
    28   14   28 1
    29   15   16 1
    30   15   29 1
    31   15   30 1
    32   16   31 1
    33   17   18 2
    34   17   19 am
    35   19   32 1
    36   19   33 1
@<TRIPOS>MOLECULE
CHEMBL460259__1
   34    36     0     0     0
SMALL
USER_CHARGES

@<TRIPOS>ATOM
      1 C1         -0.0167    1.3769    0.0096 C.ar      1 <0>        -0.0964
      2 C2          1.1632    2.0980    0.0022 C.ar      1 <0>        -0.0802
      3 C3          2.3901    1.4397   -0.0135 C.ar      1 <0>        -0.0841
      4 C4          2.4203    0.0291   -0.0214 C.ar      1 <0>         0.0973
      5 C5          1.2109   -0.6850   -0.0132 C.ar      1 <0>         0.0512
      6 C6          0.0021   -0.0041    0.0020 C.ar      1 <0>        -0.0815
      7 N1          1.5594   -2.0218   -0.0239 N.pl3     1 <0>        -0.5810
      8 H1          0.9495   -2.7761   -0.0221 H         1 <0>         0.4286
      9 C7          2.9166   -2.0818   -0.0377 C.2       1 <0>         0.2596
     10 N2          3.4163   -0.8785   -0.0362 N.2       1 <0>        -0.4453
     11 C8          3.7253   -3.3533   -0.0521 C.3       1 <0>         0.1627
     12 C9          4.6878   -3.3328   -1.2416 C.3       1 <0>        -0.0422
     13 N3          5.4900   -4.5633   -1.2438 N.4       1 <0>        -0.5007
     14 C10         6.2716   -4.6426   -0.0028 C.3       1 <0>        -0.0533
     15 C11         5.3222   -4.6740    1.1970 C.3       1 <0>         0.0353
     16 N4          4.4950   -3.4591    1.1955 N.3       1 <0>        -0.6689
     17 C12         3.6468    2.2101   -0.0224 C.2       1 <0>         0.5607
     18 O1          4.7155    1.6299   -0.0361 O.2       1 <0>        -0.5209
     19 N5          3.6115    3.5573   -0.0152 N.am      1 <0>        -0.8504
     20 H2         -0.9621    1.8987    0.0260 H         1 <0>         0.1470
     21 H3          1.1329    3.1775    0.0083 H         1 <0>         0.1413
     22 H4         -0.9266   -0.5554    0.0083 H         1 <0>         0.1358
     23 H5          3.0560   -4.2091   -0.1401 H         1 <0>         0.1233
     24 H6          4.1183   -3.2687   -2.1687 H         1 <0>         0.1434
     25 H7          5.3477   -2.4691   -1.1601 H         1 <0>         0.1496
     26 H8          4.8783   -5.3632   -1.3075 H         1 <0>         0.4280
     27 H9          6.8762   -5.5495   -0.0115 H         1 <0>         0.1448
     28 H10         6.9233   -3.7721    0.0724 H         1 <0>         0.1356
     29 H11         4.6795   -5.5517    1.1294 H         1 <0>         0.1047
     30 H12         5.9024   -4.7178    2.1188 H         1 <0>         0.1323
     31 H13         5.0605   -2.6365    1.3424 H         1 <0>         0.3759
     32 H14         2.7590    4.0201   -0.0042 H         1 <0>         0.4015
     33 H15         4.4385    4.0642   -0.0210 H         1 <0>         0.4090
     34 H16         6.1158   -4.5551   -2.0353 H         1 <0>         0.4370
@<TRIPOS>BOND
     1    1    6 ar
     2    1    2 ar
     3    1   20 1
     4    2    3 ar
     5    2   21 1
     6    3    4 ar
     7    3   17 1
     8    4   10 1
     9    4    5 ar
    10    5    6 ar
    11    5    7 1
    12    6   22 1
    13    7    8 1
    14    7    9 1
    15    9   10 2
    16    9   11 1
    17   11   16 1
    18   11   12 1
    19   11   23 1
    20   12   13 1
    21   12   24 1
    22   12   25 1
    23   13   14 1
    24   13   26 1
    25   13   34 1
    26   14   15 1
    27   14   27 1
    28   14   28 1
    29   15   16 1
    30   15   29 1
    31   15   30 1
    32   16   31 1
    33   17   18 2
    34   17   19 am
    35   19   32 1
    36   19   33 1
@<TRIPOS>MOLECULE
CHEMBL186776
   42    45     0     0     0
SMALL
USER_CHARGES

@<TRIPOS>ATOM
      1 C1         -0.0468    1.6906   -0.1411 C.ar      1 <0>        -0.1719
      2 C2          1.1981    2.2988   -0.1143 C.ar      1 <0>        -0.0229
      3 C3          2.3419    1.5313   -0.0425 C.ar      1 <0>        -0.1769
      4 C4          2.2664    0.1468    0.0212 C.ar      1 <0>         0.2273
      5 C5          1.0084   -0.4768   -0.0480 C.ar      1 <0>        -0.1823
      6 C6         -0.1444    0.3200   -0.1152 C.ar      1 <0>        -0.0098
      7 C7          0.8559   -1.9280   -0.0871 C.2       1 <0>         0.5631
      8 O1         -0.2844   -2.3280    0.0487 O.2       1 <0>        -0.5653
      9 N1          1.7549   -2.8657   -0.2459 N.am      1 <0>        -0.7026
     10 C8          3.1816   -2.7885   -0.3414 C.3       1 <0>         0.0857
     11 C9          3.8130   -1.7764    0.5909 C.3       1 <0>         0.1253
     12 N2          3.5374   -0.4129    0.1528 N.pl3     1 <0>        -0.6183
     13 C10         4.5416    0.5922   -0.2264 C.3       1 <0>         0.2084
     14 C11         3.8029    1.9325   -0.0354 C.3       1 <0>        -0.0318
     15 C12         4.1749    2.5609    1.2829 C.2       1 <0>         0.3898
     16 N3          5.0285    3.5299    1.3185 N.2       1 <0>        -0.4273
     17 O2          5.5322    4.0744    0.1124 O.3       1 <0>        -0.4103
     18 N4          3.6048    2.1021    2.4496 N.pl3     1 <0>        -0.8252
     19 C13         4.9532    0.4140   -1.6651 C.ar      1 <0>        -0.1172
     20 C14         4.0091    0.0760   -2.6167 C.ar      1 <0>        -0.0661
     21 C15         4.3853   -0.0873   -3.9365 C.ar      1 <0>        -0.1539
     22 C16         5.7083    0.0879   -4.3054 C.ar      1 <0>         0.1071
     23 C17         6.6529    0.4265   -3.3514 C.ar      1 <0>        -0.1521
     24 C18         6.2734    0.5943   -2.0332 C.ar      1 <0>        -0.0695
     25 F1          6.0772   -0.0719   -5.5952 F         1 <0>        -0.1371
     26 H1         -0.9414    2.2945   -0.1779 H         1 <0>         0.1341
     27 H2          1.2728    3.3756   -0.1493 H         1 <0>         0.1273
     28 H3         -1.1172   -0.1479   -0.1468 H         1 <0>         0.1410
     29 H4          1.3942   -3.7639   -0.3093 H         1 <0>         0.4014
     30 H5          3.5974   -3.7712   -0.1188 H         1 <0>         0.0984
     31 H6          3.4467   -2.5282   -1.3662 H         1 <0>         0.0679
     32 H7          3.4127   -1.9170    1.5949 H         1 <0>         0.0755
     33 H8          4.8914   -1.9339    0.6119 H         1 <0>         0.1035
     34 H9          5.4088    0.5351    0.4315 H         1 <0>         0.1026
     35 H10         4.0190    2.6113   -0.8604 H         1 <0>         0.1258
     36 H11         6.1646    4.7947    0.2399 H         1 <0>         0.4007
     37 H12         2.9639    1.3745    2.4229 H         1 <0>         0.4119
     38 H13         3.8442    2.5066    3.2981 H         1 <0>         0.4058
     39 H14         2.9773   -0.0610   -2.3287 H         1 <0>         0.1285
     40 H15         3.6477   -0.3518   -4.6797 H         1 <0>         0.1362
     41 H16         7.6852    0.5630   -3.6380 H         1 <0>         0.1388
     42 H17         7.0093    0.8628   -1.2896 H         1 <0>         0.1344
@<TRIPOS>BOND
     1    1    6 ar
     2    1    2 ar
     3    1   26 1
     4    2    3 ar
     5    2   27 1
     6    3   14 1
     7    3    4 ar
     8    4   12 1
     9    4    5 ar
    10    5    6 ar
    11    5    7 1
    12    6   28 1
    13    7    8 2
    14    7    9 am
    15    9   10 1
    16    9   29 1
    17   10   11 1
    18   10   30 1
    19   10   31 1
    20   11   12 1
    21   11   32 1
    22   11   33 1
    23   12   13 1
    24   13   14 1
    25   13   19 1
    26   13   34 1
    27   14   15 1
    28   14   35 1
    29   15   16 2
    30   15   18 1
    31   16   17 1
    32   17   36 1
    33   18   37 1
    34   18   38 1
    35   19   24 ar
    36   19   20 ar
    37   20   21 ar
    38   20   39 1
    39   21   22 ar
    40   21   40 1
    41   22   23 ar
    42   22   25 1
    43   23   24 ar
    44   23   41 1
    45   24   42 1
@<TRIPOS>MOLECULE
CHEMBL186776__1
   42    45     0     0     0
SMALL
USER_CHARGES

@<TRIPOS>ATOM
      1 C1         -0.0412    1.5217    0.1392 C.ar      1 <0>        -0.1728
      2 C2          1.1775    2.1794    0.0884 C.ar      1 <0>        -0.0254
      3 C3          2.3524    1.4578    0.0506 C.ar      1 <0>        -0.1790
      4 C4          2.3359    0.0703    0.0810 C.ar      1 <0>         0.2307
      5 C5          1.1015   -0.6024    0.0910 C.ar      1 <0>        -0.1834
      6 C6         -0.0831    0.1481    0.1340 C.ar      1 <0>        -0.0096
      7 C7          1.0030   -2.0571    0.0230 C.2       1 <0>         0.5630
      8 O1         -0.1069   -2.5067    0.2346 O.2       1 <0>        -0.5650
      9 N1          1.9226   -2.9530   -0.2306 N.am      1 <0>        -0.7029
     10 C8          3.3335   -2.8152   -0.4331 C.3       1 <0>         0.0856
     11 C9          3.9957   -1.8017    0.4761 C.3       1 <0>         0.1249
     12 N2          3.6341   -0.4401    0.0990 N.pl3     1 <0>        -0.6178
     13 C10         4.5659    0.6144   -0.3277 C.3       1 <0>         0.2045
     14 C11         3.7928    1.9181   -0.0431 C.3       1 <0>        -0.0311
     15 C12         3.9653    2.8963   -1.1764 C.2       1 <0>         0.3985
     16 N3          4.8194    3.8601   -1.0735 N.2       1 <0>        -0.4254
     17 O2          5.6716    3.9334    0.0549 O.3       1 <0>        -0.4145
     18 N4          3.2125    2.7627   -2.3219 N.pl3     1 <0>        -0.8242
     19 C13         4.8710    0.4892   -1.7982 C.ar      1 <0>        -0.1125
     20 C14         3.8951    0.0445   -2.6706 C.ar      1 <0>        -0.0701
     21 C15         4.1736   -0.0703   -4.0194 C.ar      1 <0>        -0.1529
     22 C16         5.4305    0.2603   -4.4968 C.ar      1 <0>         0.1071
     23 C17         6.4070    0.7057   -3.6221 C.ar      1 <0>        -0.1487
     24 C18         6.1247    0.8246   -2.2745 C.ar      1 <0>        -0.0660
     25 F1          5.7040    0.1481   -5.8151 F         1 <0>        -0.1380
     26 H1         -0.9588    2.0892    0.1874 H         1 <0>         0.1344
     27 H2          1.2074    3.2590    0.0780 H         1 <0>         0.1272
     28 H3         -1.0366   -0.3583    0.1632 H         1 <0>         0.1412
     29 H4          1.5932   -3.8634   -0.2913 H         1 <0>         0.4016
     30 H5          3.8032   -3.7853   -0.2706 H         1 <0>         0.0988
     31 H6          3.5077   -2.5187   -1.4674 H         1 <0>         0.0680
     32 H7          3.6804   -1.9836    1.5036 H         1 <0>         0.0756
     33 H8          5.0777   -1.9154    0.4100 H         1 <0>         0.1043
     34 H9          5.4832    0.5764    0.2598 H         1 <0>         0.1073
     35 H10         4.1173    2.3593    0.8993 H         1 <0>         0.1223
     36 H11         6.3268    4.6430    0.0075 H         1 <0>         0.4004
     37 H12         2.5712    2.0391   -2.3992 H         1 <0>         0.4096
     38 H13         3.3235    3.3923   -3.0514 H         1 <0>         0.4046
     39 H14         2.9149   -0.2137   -2.2979 H         1 <0>         0.1264
     40 H15         3.4112   -0.4181   -4.7007 H         1 <0>         0.1352
     41 H16         7.3879    0.9635   -3.9934 H         1 <0>         0.1364
     42 H17         6.8849    1.1762   -1.5927 H         1 <0>         0.1320
@<TRIPOS>BOND
     1    1    6 ar
     2    1    2 ar
     3    1   26 1
     4    2    3 ar
     5    2   27 1
     6    3   14 1
     7    3    4 ar
     8    4   12 1
     9    4    5 ar
    10    5    6 ar
    11    5    7 1
    12    6   28 1
    13    7    8 2
    14    7    9 am
    15    9   10 1
    16    9   29 1
    17   10   11 1
    18   10   30 1
    19   10   31 1
    20   11   12 1
    21   11   32 1
    22   11   33 1
    23   12   13 1
    24   13   14 1
    25   13   19 1
    26   13   34 1
    27   14   15 1
    28   14   35 1
    29   15   16 2
    30   15   18 1
    31   16   17 1
    32   17   36 1
    33   18   37 1
    34   18   38 1
    35   19   24 ar
    36   19   20 ar
    37   20   21 ar
    38   20   39 1
    39   21   22 ar
    40   21   40 1
    41   22   23 ar
    42   22   25 1
    43   23   24 ar
    44   23   41 1
    45   24   42 1
@<TRIPOS>MOLECULE
CHEMBL186776__2
   42    45     0     0     0
SMALL
USER_CHARGES

@<TRIPOS>ATOM
      1 C1          0.1468    1.7570    0.2108 C.ar      1 <0>        -0.1728
      2 C2          1.3809    2.3774    0.0985 C.ar      1 <0>        -0.0247
      3 C3          2.5315    1.6206    0.0223 C.ar      1 <0>        -0.1784
      4 C4          2.4728    0.2339    0.0371 C.ar      1 <0>         0.2299
      5 C5          1.2276   -0.3997    0.1941 C.ar      1 <0>        -0.1834
      6 C6          0.0674    0.3860    0.2655 C.ar      1 <0>        -0.0098
      7 C7          1.0979   -1.8482    0.3198 C.2       1 <0>         0.5630
      8 O1         -0.0421   -2.2677    0.2654 O.2       1 <0>        -0.5652
      9 N1          2.0166   -2.7659    0.4815 N.am      1 <0>        -0.7029
     10 C8          3.4455   -2.6692    0.5079 C.3       1 <0>         0.0858
     11 C9          4.0207   -1.6973   -0.5010 C.3       1 <0>         0.1250
     12 N2          3.7444   -0.3173   -0.1199 N.pl3     1 <0>        -0.6178
     13 C10         4.7494    0.7179    0.1655 C.3       1 <0>         0.2043
     14 C11         3.9855    2.0375   -0.0663 C.3       1 <0>        -0.0324
     15 C12         4.3174    3.0394    1.0094 C.2       1 <0>         0.3990
     16 N3          5.1685    3.9822    0.7735 N.2       1 <0>        -0.4257
     17 O2          5.6986    4.1480   -0.5291 O.3       1 <0>        -0.4147
     18 N4          3.7134    2.9501    2.2438 N.pl3     1 <0>        -0.8243
     19 C13         5.2195    0.6212    1.5941 C.ar      1 <0>        -0.1134
     20 C14         4.3369    0.2394    2.5873 C.ar      1 <0>        -0.0706
     21 C15         4.7670    0.1499    3.8976 C.ar      1 <0>        -0.1529
     22 C16         6.0824    0.4427    4.2154 C.ar      1 <0>         0.1075
     23 C17         6.9654    0.8250    3.2198 C.ar      1 <0>        -0.1483
     24 C18         6.5344    0.9087    1.9095 C.ar      1 <0>        -0.0667
     25 F1          6.5038    0.3560    5.4961 F         1 <0>        -0.1377
     26 H1         -0.7534    2.3518    0.2599 H         1 <0>         0.1343
     27 H2          1.4417    3.4553    0.0702 H         1 <0>         0.1274
     28 H3         -0.8966   -0.0907    0.3648 H         1 <0>         0.1412
     29 H4          1.6714   -3.6640    0.6046 H         1 <0>         0.4014
     30 H5          3.7532   -2.3557    1.5055 H         1 <0>         0.0679
     31 H6          3.8633   -3.6572    0.3145 H         1 <0>         0.0989
     32 H7          5.0993   -1.8420   -0.5618 H         1 <0>         0.1042
     33 H8          3.5791   -1.8934   -1.4781 H         1 <0>         0.0757
     34 H9          5.5907    0.6358   -0.5226 H         1 <0>         0.1070
     35 H10         4.2096    2.4430   -1.0529 H         1 <0>         0.1238
     36 H11         6.2675    4.9238   -0.6264 H         1 <0>         0.4004
     37 H12         3.0743    2.2422    2.4209 H         1 <0>         0.4095
     38 H13         3.9270    3.5950    2.9361 H         1 <0>         0.4044
     39 H14         3.3108    0.0113    2.3391 H         1 <0>         0.1268
     40 H15         4.0772   -0.1481    4.6734 H         1 <0>         0.1355
     41 H16         7.9916    1.0540    3.4667 H         1 <0>         0.1367
     42 H17         7.2241    1.2026    1.1321 H         1 <0>         0.1317
@<TRIPOS>BOND
     1    1    6 ar
     2    1    2 ar
     3    1   26 1
     4    2    3 ar
     5    2   27 1
     6    3   14 1
     7    3    4 ar
     8    4   12 1
     9    4    5 ar
    10    5    6 ar
    11    5    7 1
    12    6   28 1
    13    7    8 2
    14    7    9 am
    15    9   10 1
    16    9   29 1
    17   10   11 1
    18   10   30 1
    19   10   31 1
    20   11   12 1
    21   11   32 1
    22   11   33 1
    23   12   13 1
    24   13   14 1
    25   13   19 1
    26   13   34 1
    27   14   15 1
    28   14   35 1
    29   15   16 2
    30   15   18 1
    31   16   17 1
    32   17   36 1
    33   18   37 1
    34   18   38 1
    35   19   24 ar
    36   19   20 ar
    37   20   21 ar
    38   20   39 1
    39   21   22 ar
    40   21   40 1
    41   22   23 ar
    42   22   25 1
    43   23   24 ar
    44   23   41 1
    45   24   42 1
@<TRIPOS>MOLECULE
CHEMBL186776__3
   42    45     0     0     0
SMALL
USER_CHARGES

@<TRIPOS>ATOM
      1 C1          0.0269    1.1136   -0.1182 C.ar      1 <0>        -0.1721
      2 C2          1.1649    1.9042   -0.0978 C.ar      1 <0>        -0.0232
      3 C3          2.4137    1.3191   -0.0725 C.ar      1 <0>        -0.1775
      4 C4          2.5523   -0.0619   -0.0866 C.ar      1 <0>         0.2279
      5 C5          1.4009   -0.8685   -0.0639 C.ar      1 <0>        -0.1825
      6 C6          0.1390   -0.2560   -0.0944 C.ar      1 <0>        -0.0094
      7 C7          1.4678   -2.3240    0.0243 C.2       1 <0>         0.5631
      8 O1          0.4097   -2.8975   -0.1494 O.2       1 <0>        -0.5655
      9 N1          2.4884   -3.1083    0.2606 N.am      1 <0>        -0.7025
     10 C8          3.8797   -2.8128    0.4296 C.3       1 <0>         0.0856
     11 C9          4.4040   -1.7395   -0.5013 C.3       1 <0>         0.1253
     12 N2          3.8986   -0.4242   -0.1264 N.pl3     1 <0>        -0.6183
     13 C10         4.7138    0.7326    0.2740 C.3       1 <0>         0.2083
     14 C11         3.7951    1.9384   -0.0102 C.3       1 <0>        -0.0303
     15 C12         4.1504    2.5782   -1.3276 C.2       1 <0>         0.3895
     16 N3          4.8486    3.6649   -1.3504 N.2       1 <0>        -0.4273
     17 O2          5.3749    4.1937   -0.1469 O.3       1 <0>        -0.4100
     18 N4          3.7308    2.0043   -2.5071 N.pl3     1 <0>        -0.8252
     19 C13         5.0544    0.6594    1.7401 C.ar      1 <0>        -0.1170
     20 C14         4.1168    0.1971    2.6448 C.ar      1 <0>        -0.0666
     21 C15         4.4283    0.1291    3.9895 C.ar      1 <0>        -0.1542
     22 C16         5.6798    0.5241    4.4306 C.ar      1 <0>         0.1067
     23 C17         6.6181    0.9869    3.5236 C.ar      1 <0>        -0.1523
     24 C18         6.3062    1.0491    2.1787 C.ar      1 <0>        -0.0686
     25 F1          5.9852    0.4585    5.7450 F         1 <0>        -0.1372
     26 H1         -0.9494    1.5744   -0.1484 H         1 <0>         0.1341
     27 H2          1.0738    2.9803   -0.1020 H         1 <0>         0.1271
     28 H3         -0.7521   -0.8661   -0.0987 H         1 <0>         0.1411
     29 H4          2.2647   -4.0492    0.3341 H         1 <0>         0.4013
     30 H5          4.0430   -2.4897    1.4578 H         1 <0>         0.0680
     31 H6          4.4508   -3.7260    0.2621 H         1 <0>         0.0985
     32 H7          5.4931   -1.7295   -0.4577 H         1 <0>         0.1036
     33 H8          4.0902   -1.9658   -1.5203 H         1 <0>         0.0755
     34 H9          5.6200    0.7904   -0.3290 H         1 <0>         0.1031
     35 H10         3.8540    2.6656    0.7996 H         1 <0>         0.1245
     36 H11         5.8828    5.0081   -0.2641 H         1 <0>         0.4007
     37 H12         3.2066    1.1884   -2.4900 H         1 <0>         0.4119
     38 H13         3.9595    2.4162   -3.3551 H         1 <0>         0.4058
     39 H14         3.1405   -0.1106    2.3005 H         1 <0>         0.1282
     40 H15         3.6955   -0.2318    4.6961 H         1 <0>         0.1359
     41 H16         7.5945    1.2957    3.8665 H         1 <0>         0.1387
     42 H17         7.0394    1.4059    1.4705 H         1 <0>         0.1349
@<TRIPOS>BOND
     1    1    6 ar
     2    1    2 ar
     3    1   26 1
     4    2    3 ar
     5    2   27 1
     6    3   14 1
     7    3    4 ar
     8    4   12 1
     9    4    5 ar
    10    5    6 ar
    11    5    7 1
    12    6   28 1
    13    7    8 2
    14    7    9 am
    15    9   10 1
    16    9   29 1
    17   10   11 1
    18   10   30 1
    19   10   31 1
    20   11   12 1
    21   11   32 1
    22   11   33 1
    23   12   13 1
    24   13   14 1
    25   13   19 1
    26   13   34 1
    27   14   15 1
    28   14   35 1
    29   15   16 2
    30   15   18 1
    31   16   17 1
    32   17   36 1
    33   18   37 1
    34   18   38 1
    35   19   24 ar
    36   19   20 ar
    37   20   21 ar
    38   20   39 1
    39   21   22 ar
    40   21   40 1
    41   22   23 ar
    42   22   25 1
    43   23   24 ar
    44   23   41 1
    45   24   42 1
@<TRIPOS>MOLECULE
CHEMBL127396
   32    34     0     0     0
SMALL
USER_CHARGES

@<TRIPOS>ATOM
      1 C1         -0.0127    1.0858    0.0080 C.3       1 <0>        -0.1093
      2 C2         -0.7416    1.5850   -1.2129 C.ar      1 <0>        -0.0661
      3 C3         -2.0909    1.7949   -1.1672 C.ar      1 <0>        -0.0777
      4 C4         -2.7808    2.2546   -2.2816 C.ar      1 <0>        -0.1218
      5 C5         -2.1164    2.5093   -3.4617 C.ar      1 <0>        -0.0494
      6 C6         -0.7400    2.3022   -3.5305 C.ar      1 <0>        -0.1867
      7 C7         -0.0382    1.8402   -2.3937 C.ar      1 <0>         0.1463
      8 N1          1.2938    1.6501   -2.4760 N.2       1 <0>        -0.4894
      9 C8          1.9547    1.8876   -3.5796 C.2       1 <0>         0.4227
     10 N2          1.3585    2.3418   -4.7239 N.am      1 <0>        -0.6503
     11 C9          0.0224    2.5559   -4.7617 C.2       1 <0>         0.5542
     12 O1         -0.5244    2.9591   -5.7717 O.2       1 <0>        -0.5018
     13 C10         3.4143    1.6546   -3.5905 C.ar      1 <0>        -0.0158
     14 C11         4.1550    1.9020   -4.7475 C.ar      1 <0>        -0.0964
     15 C12         5.5171    1.6829   -4.7508 C.ar      1 <0>        -0.0520
     16 C13         6.1489    1.2186   -3.6109 C.ar      1 <0>        -0.0288
     17 C14         5.4207    0.9714   -2.4607 C.ar      1 <0>        -0.0554
     18 C15         4.0589    1.1917   -2.4422 C.ar      1 <0>        -0.0560
     19 N3          7.6105    0.9848   -3.6220 N.pl3     1 <0>         0.0277
     20 O2          8.2495    1.1996   -4.6256 O.2       1 <0>        -0.1498
     21 O3          8.1654    0.5791   -2.6274 O.3       1 <0>        -0.1474
     22 H1          0.0021   -0.0041    0.0020 H         1 <0>         0.0748
     23 H2          1.0099    1.4631    0.0003 H         1 <0>         0.0783
     24 H3         -0.5229    1.4373    0.9048 H         1 <0>         0.0693
     25 H4         -2.6290    1.6001   -0.2513 H         1 <0>         0.1379
     26 H5         -3.8474    2.4134   -2.2228 H         1 <0>         0.1380
     27 H6         -2.6575    2.8660   -4.3256 H         1 <0>         0.1413
     28 H7          1.8950    2.5025   -5.5159 H         1 <0>         0.4180
     29 H8          3.6629    2.2638   -5.6382 H         1 <0>         0.1487
     30 H9          6.0913    1.8739   -5.6453 H         1 <0>         0.1640
     31 H10         5.9199    0.6087   -1.5744 H         1 <0>         0.1649
     32 H11         3.4923    1.0026   -1.5424 H         1 <0>         0.1682
@<TRIPOS>BOND
     1    1   22 1
     2    1   23 1
     3    1   24 1
     4    1    2 1
     5    2    3 ar
     6    2    7 ar
     7    3    4 ar
     8    3   25 1
     9    4    5 ar
    10    4   26 1
    11    5    6 ar
    12    5   27 1
    13    6   11 1
    14    6    7 ar
    15    7    8 1
    16    8    9 2
    17    9   13 1
    18    9   10 1
    19   10   28 1
    20   10   11 am
    21   11   12 2
    22   13   18 ar
    23   13   14 ar
    24   14   15 ar
    25   14   29 1
    26   15   16 ar
    27   15   30 1
    28   16   17 ar
    29   16   19 1
    30   17   18 ar
    31   17   31 1
    32   18   32 1
    33   19   20 2
    34   19   21 1
@<TRIPOS>MOLECULE
CHEMBL127396__1
   32    34     0     0     0
SMALL
USER_CHARGES

@<TRIPOS>ATOM
      1 C1         -0.0127    1.0858    0.0080 C.3       1 <0>        -0.1166
      2 C2         -0.7416    1.5850   -1.2129 C.ar      1 <0>        -0.1263
      3 C3         -2.1035    1.7973   -1.1681 C.ar      1 <0>        -0.0561
      4 C4         -2.7854    2.2563   -2.2861 C.ar      1 <0>        -0.1396
      5 C5         -2.1114    2.5079   -3.4615 C.ar      1 <0>        -0.0302
      6 C6         -0.7356    2.2986   -3.5213 C.ar      1 <0>        -0.2051
      7 C7         -0.0442    1.8388   -2.3862 C.ar      1 <0>         0.1759
      8 N1          1.3207    1.6467   -2.4787 N.pl3     1 <0>        -0.6224
      9 C8          1.9732    1.9051   -3.6435 C.2       1 <0>         0.4875
     10 N2          1.3642    2.3410   -4.7240 N.2       1 <0>        -0.5796
     11 C9          0.0382    2.5500   -4.7510 C.2       1 <0>         0.5351
     12 O1         -0.5102    2.9531   -5.7627 O.2       1 <0>        -0.4713
     13 C10         3.4333    1.6864   -3.6971 C.ar      1 <0>        -0.0316
     14 C11         4.1142    1.2190   -2.5711 C.ar      1 <0>        -0.0918
     15 C12         5.4775    1.0170   -2.6281 C.ar      1 <0>        -0.0555
     16 C13         6.1703    1.2765   -3.7974 C.ar      1 <0>        -0.0224
     17 C14         5.5018    1.7398   -4.9168 C.ar      1 <0>        -0.0564
     18 C15         4.1378    1.9407   -4.8756 C.ar      1 <0>        -0.0442
     19 N3          7.6333    1.0579   -3.8509 N.pl3     1 <0>         0.0265
     20 O2          8.2202    0.6535   -2.8743 O.2       1 <0>        -0.1481
     21 O3          8.2413    1.2837   -4.8712 O.3       1 <0>        -0.1444
     22 H1          0.0021   -0.0041    0.0020 H         1 <0>         0.0793
     23 H2          1.0099    1.4631    0.0003 H         1 <0>         0.0599
     24 H3         -0.5229    1.4373    0.9048 H         1 <0>         0.0829
     25 H4         -2.6449    1.6039   -0.2538 H         1 <0>         0.1390
     26 H5         -3.8522    2.4171   -2.2349 H         1 <0>         0.1383
     27 H6         -2.6458    2.8644   -4.3297 H         1 <0>         0.1451
     28 H7          3.5747    1.0164   -1.6577 H         1 <0>         0.1472
     29 H8          6.0055    0.6559   -1.7579 H         1 <0>         0.1653
     30 H9          6.0487    1.9404   -5.8263 H         1 <0>         0.1671
     31 H10         3.6165    2.2978   -5.7514 H         1 <0>         0.1725
     32 H11         1.8162    1.3261   -1.7089 H         1 <0>         0.4199
@<TRIPOS>BOND
     1    1   22 1
     2    1   23 1
     3    1   24 1
     4    1    2 1
     5    2    3 ar
     6    2    7 ar
     7    3    4 ar
     8    3   25 1
     9    4    5 ar
    10    4   26 1
    11    5    6 ar
    12    5   27 1
    13    6   11 1
    14    6    7 ar
    15    7    8 1
    16    8    9 1
    17    8   32 1
    18    9   13 1
    19    9   10 2
    20   10   11 1
    21   11   12 2
    22   13   18 ar
    23   13   14 ar
    24   14   15 ar
    25   14   28 1
    26   15   16 ar
    27   15   29 1
    28   16   17 ar
    29   16   19 1
    30   17   18 ar
    31   17   30 1
    32   18   31 1
    33   19   20 2
    34   19   21 1
@<TRIPOS>MOLECULE
CHEMBL127396__2
   31    33     0     0     0
SMALL
USER_CHARGES

@<TRIPOS>ATOM
      1 C1         -0.0127    1.0858    0.0080 C.3       1 <0>        -0.0923
      2 C2         -0.7416    1.5850   -1.2129 C.ar      1 <0>        -0.1086
      3 C3         -2.0875    1.7951   -1.1699 C.ar      1 <0>        -0.0865
      4 C4         -2.7780    2.2565   -2.2875 C.ar      1 <0>        -0.1795
      5 C5         -2.1265    2.5111   -3.4582 C.ar      1 <0>        -0.0346
      6 C6         -0.7442    2.3060   -3.5370 C.ar      1 <0>        -0.2244
      7 C7         -0.0382    1.8419   -2.3988 C.ar      1 <0>         0.1920
      8 N1          1.2847    1.6561   -2.4918 N.ar      1 <0>        -0.5902
      9 C8          1.9159    1.9072   -3.6234 C.ar      1 <0>         0.3806
     10 N2          1.2910    2.3492   -4.7135 N.ar      1 <0>        -0.6267
     11 C9         -0.0156    2.5526   -4.7248 C.ar      1 <0>         0.4712
     12 O1         -0.6378    3.0008   -5.8394 O.3       1 <0>        -0.6626
     13 C10         3.3812    1.6886   -3.6836 C.ar      1 <0>         0.0408
     14 C11         4.0655    1.2216   -2.5625 C.ar      1 <0>        -0.0809
     15 C12         5.4294    1.0201   -2.6243 C.ar      1 <0>        -0.0668
     16 C13         6.1173    1.2805   -3.7959 C.ar      1 <0>        -0.0539
     17 C14         5.4435    1.7445   -4.9114 C.ar      1 <0>        -0.0652
     18 C15         4.0788    1.9439   -4.8631 C.ar      1 <0>        -0.0764
     19 N3          7.5801    1.0624   -3.8559 N.pl3     1 <0>         0.0394
     20 O2          8.1713    0.6573   -2.8822 O.2       1 <0>        -0.1699
     21 O3          8.1837    1.2892   -4.8786 O.3       1 <0>        -0.1688
     22 H1          0.0021   -0.0041    0.0020 H         1 <0>         0.0591
     23 H2          1.0099    1.4631    0.0003 H         1 <0>         0.0716
     24 H3         -0.5229    1.4373    0.9048 H         1 <0>         0.0529
     25 H4         -2.6269    1.6004   -0.2547 H         1 <0>         0.1156
     26 H5         -3.8447    2.4147   -2.2265 H         1 <0>         0.1138
     27 H6         -2.6733    2.8680   -4.3184 H         1 <0>         0.1241
     28 H7          3.5295    1.0183   -1.6472 H         1 <0>         0.1594
     29 H8          5.9607    0.6587   -1.7563 H         1 <0>         0.1516
     30 H9          5.9859    1.9469   -5.8232 H         1 <0>         0.1524
     31 H10         3.5530    2.3012   -5.7362 H         1 <0>         0.1629
@<TRIPOS>BOND
     1    1   22 1
     2    1   23 1
     3    1   24 1
     4    1    2 1
     5    2    3 ar
     6    2    7 ar
     7    3    4 ar
     8    3   25 1
     9    4    5 ar
    10    4   26 1
    11    5    6 ar
    12    5   27 1
    13    6   11 ar
    14    6    7 ar
    15    7    8 ar
    16    8    9 ar
    17    9   13 1
    18    9   10 ar
    19   10   11 ar
    20   11   12 1
    21   13   18 ar
    22   13   14 ar
    23   14   15 ar
    24   14   28 1
    25   15   16 ar
    26   15   29 1
    27   16   17 ar
    28   16   19 1
    29   17   18 ar
    30   17   30 1
    31   18   31 1
    32   19   20 2
    33   19   21 1
@<TRIPOS>MOLECULE
CHEMBL480715
   50    52     0     0     0
SMALL
USER_CHARGES

@<TRIPOS>ATOM
      1 C1          0.2187    3.0507   -0.5303 C.ar      1 <0>        -0.1630
      2 C2          1.5243    3.5143   -0.5280 C.ar      1 <0>        -0.0485
      3 C3          2.5789    2.6309   -0.4129 C.ar      1 <0>        -0.2209
      4 C4          2.3366    1.2700   -0.2981 C.ar      1 <0>         0.1859
      5 C5          1.0174    0.7971   -0.2995 C.ar      1 <0>        -0.1778
      6 C6         -0.0404    1.7022   -0.4170 C.ar      1 <0>        -0.0465
      7 C7          0.7472   -0.6482   -0.1784 C.2       1 <0>         0.5653
      8 O1          1.6704   -1.4329   -0.0770 O.2       1 <0>        -0.5263
      9 N1         -0.5230   -1.0988   -0.1801 N.am      1 <0>        -0.8540
     10 O2          3.3719    0.4007   -0.1854 O.3       1 <0>        -0.2792
     11 C8          4.6887    0.9557   -0.1920 C.3       1 <0>         0.0570
     12 C9          5.7169   -0.1692   -0.0564 C.3       1 <0>        -0.0785
     13 C10         7.1056    0.4161   -0.0633 C.ar      1 <0>        -0.0837
     14 C11         7.7790    0.5817   -1.2609 C.ar      1 <0>        -0.0775
     15 C12         9.0538    1.1187   -1.2761 C.ar      1 <0>        -0.1129
     16 C13         9.6624    1.4923   -0.0955 C.ar      1 <0>        -0.0591
     17 C14         8.9889    1.3280    1.1157 C.ar      1 <0>        -0.1446
     18 C15         7.7004    0.7908    1.1234 C.ar      1 <0>        -0.0938
     19 C16         9.6351    1.7258    2.3845 C.2       1 <0>         0.5748
     20 O3         10.3298    2.7223    2.4265 O.2       1 <0>        -0.5018
     21 N2          9.4538    0.9834    3.4947 N.am      1 <0>        -0.6320
     22 C17         8.7296   -0.2959    3.4394 C.3       1 <0>         0.0714
     23 C18         9.5814   -1.3664    4.1296 C.3       1 <0>        -0.0226
     24 N3          9.9210   -0.9204    5.4867 N.4       1 <0>        -0.5054
     25 C19        10.7679    0.2773    5.4223 C.3       1 <0>        -0.0200
     26 C20         9.9799    1.4265    4.7951 C.3       1 <0>         0.0859
     27 H1         -0.5998    3.7499   -0.6166 H         1 <0>         0.1343
     28 H2          1.7182    4.5730   -0.6172 H         1 <0>         0.1328
     29 H3          3.5940    2.9998   -0.4127 H         1 <0>         0.1337
     30 H4         -1.0597    1.3453   -0.4189 H         1 <0>         0.1350
     31 H5         -1.2596   -0.4728   -0.2610 H         1 <0>         0.3999
     32 H6         -0.7007   -2.0491   -0.1005 H         1 <0>         0.4064
     33 H7          4.8539    1.4880   -1.1286 H         1 <0>         0.0673
     34 H8          4.7953    1.6480    0.6431 H         1 <0>         0.0632
     35 H9          5.5517   -0.7015    0.8803 H         1 <0>         0.0870
     36 H10         5.6102   -0.8615   -0.8915 H         1 <0>         0.0937
     37 H11         7.3073    0.2902   -2.1877 H         1 <0>         0.1364
     38 H12         9.5740    1.2453   -2.2140 H         1 <0>         0.1393
     39 H13        10.6580    1.9108   -0.1086 H         1 <0>         0.1359
     40 H14         7.1720    0.6651    2.0569 H         1 <0>         0.1306
     41 H15         7.7745   -0.1987    3.9556 H         1 <0>         0.1002
     42 H16         8.5606   -0.5764    2.3997 H         1 <0>         0.1405
     43 H17         9.0196   -2.2989    4.1833 H         1 <0>         0.1494
     44 H18        10.4967   -1.5257    3.5596 H         1 <0>         0.1368
     45 H19         9.0737   -0.7050    5.9905 H         1 <0>         0.4294
     46 H20        11.0805    0.5560    6.4287 H         1 <0>         0.1488
     47 H21        11.6474    0.0682    4.8133 H         1 <0>         0.1360
     48 H22        10.6370    2.2842    4.6514 H         1 <0>         0.1378
     49 H23         9.1531    1.7006    5.4506 H         1 <0>         0.0974
     50 H24        10.4170   -1.6562    5.9669 H         1 <0>         0.4358
@<TRIPOS>BOND
     1    1    6 ar
     2    1    2 ar
     3    1   27 1
     4    2    3 ar
     5    2   28 1
     6    3    4 ar
     7    3   29 1
     8    4    5 ar
     9    4   10 1
    10    5    6 ar
    11    5    7 1
    12    6   30 1
    13    7    8 2
    14    7    9 am
    15    9   31 1
    16    9   32 1
    17   10   11 1
    18   11   12 1
    19   11   33 1
    20   11   34 1
    21   12   13 1
    22   12   35 1
    23   12   36 1
    24   13   18 ar
    25   13   14 ar
    26   14   15 ar
    27   14   37 1
    28   15   16 ar
    29   15   38 1
    30   16   17 ar
    31   16   39 1
    32   17   18 ar
    33   17   19 1
    34   18   40 1
    35   19   20 2
    36   19   21 am
    37   21   26 1
    38   21   22 1
    39   22   23 1
    40   22   41 1
    41   22   42 1
    42   23   24 1
    43   23   43 1
    44   23   44 1
    45   24   25 1
    46   24   45 1
    47   24   50 1
    48   25   26 1
    49   25   46 1
    50   25   47 1
    51   26   48 1
    52   26   49 1
@<TRIPOS>MOLECULE
CHEMBL480715__1
   49    51     0     0     0
SMALL
USER_CHARGES

@<TRIPOS>ATOM
      1 C1          0.2623    3.1902   -0.6030 C.ar      1 <0>        -0.1673
      2 C2          1.5759    3.6304   -0.5968 C.ar      1 <0>        -0.0488
      3 C3          2.6138    2.7295   -0.4665 C.ar      1 <0>        -0.2205
      4 C4          2.3465    1.3743   -0.3403 C.ar      1 <0>         0.1900
      5 C5          1.0191    0.9250   -0.3456 C.ar      1 <0>        -0.1798
      6 C6         -0.0216    1.8476   -0.4786 C.ar      1 <0>        -0.0477
      7 C7          0.7223   -0.5141   -0.2125 C.2       1 <0>         0.5638
      8 O1          1.6307   -1.3141   -0.0978 O.2       1 <0>        -0.5212
      9 N1         -0.5557   -0.9419   -0.2181 N.am      1 <0>        -0.8557
     10 O2          3.3653    0.4878   -0.2127 O.3       1 <0>        -0.2783
     11 C8          4.6918    1.0191   -0.2161 C.3       1 <0>         0.0574
     12 C9          5.6989   -0.1225   -0.0633 C.3       1 <0>        -0.0762
     13 C10         7.0979    0.4379   -0.0669 C.ar      1 <0>        -0.0900
     14 C11         7.7816    0.5800   -1.2616 C.ar      1 <0>        -0.0880
     15 C12         9.0659    1.0939   -1.2738 C.ar      1 <0>        -0.1200
     16 C13         9.6737    1.4680   -0.0929 C.ar      1 <0>        -0.0645
     17 C14         8.9898    1.3274    1.1154 C.ar      1 <0>        -0.1285
     18 C15         7.6919    0.8133    1.1200 C.ar      1 <0>        -0.0845
     19 C16         9.6351    1.7258    2.3845 C.2       1 <0>         0.5614
     20 O3         10.3291    2.7228    2.4267 O.2       1 <0>        -0.5328
     21 N2          9.4538    0.9834    3.4947 N.am      1 <0>        -0.6096
     22 C17         9.9751    1.4307    4.7953 C.3       1 <0>         0.1144
     23 C18        10.7848    0.2866    5.4147 C.3       1 <0>         0.0425
     24 N3          9.9568   -0.9259    5.4611 N.3       1 <0>        -0.6896
     25 C19         9.5883   -1.3715    4.1107 C.3       1 <0>         0.0410
     26 C20         8.7242   -0.2924    3.4390 C.3       1 <0>         0.1009
     27 H1         -0.5431    3.9030   -0.7012 H         1 <0>         0.1319
     28 H2          1.7892    4.6846   -0.6948 H         1 <0>         0.1315
     29 H3          3.6353    3.0802   -0.4633 H         1 <0>         0.1354
     30 H4         -1.0471    1.5090   -0.4835 H         1 <0>         0.1330
     31 H5         -1.2804   -0.3037   -0.3096 H         1 <0>         0.3984
     32 H6         -0.7509   -1.8880   -0.1306 H         1 <0>         0.4052
     33 H7          4.8724    1.5394   -1.1568 H         1 <0>         0.0664
     34 H8          4.8057    1.7175    0.6130 H         1 <0>         0.0654
     35 H9          5.5184   -0.6428    0.8774 H         1 <0>         0.0884
     36 H10         5.5851   -0.8208   -0.8924 H         1 <0>         0.0900
     37 H11         7.3106    0.2880   -2.1886 H         1 <0>         0.1303
     38 H12         9.5940    1.2022   -2.2096 H         1 <0>         0.1331
     39 H13        10.6767    1.8685   -0.1037 H         1 <0>         0.1323
     40 H14         7.1556    0.7061    2.0513 H         1 <0>         0.1327
     41 H15        10.6182    2.2992    4.6530 H         1 <0>         0.0973
     42 H16         9.1453    1.6898    5.4529 H         1 <0>         0.0776
     43 H17        11.6712    0.0988    4.8088 H         1 <0>         0.0371
     44 H18        11.0862    0.5602    6.4259 H         1 <0>         0.0902
     45 H19        10.4221   -1.6622    5.9705 H         1 <0>         0.3491
     46 H20        10.4914   -1.5363    3.5230 H         1 <0>         0.0376
     47 H21         9.0219   -2.3005    4.1761 H         1 <0>         0.0904
     48 H22         7.7765   -0.1958    3.9687 H         1 <0>         0.0802
     49 H23         8.5399   -0.5637    2.3995 H         1 <0>         0.0980
@<TRIPOS>BOND
     1    1    6 ar
     2    1    2 ar
     3    1   27 1
     4    2    3 ar
     5    2   28 1
     6    3    4 ar
     7    3   29 1
     8    4    5 ar
     9    4   10 1
    10    5    6 ar
    11    5    7 1
    12    6   30 1
    13    7    8 2
    14    7    9 am
    15    9   31 1
    16    9   32 1
    17   10   11 1
    18   11   12 1
    19   11   33 1
    20   11   34 1
    21   12   13 1
    22   12   35 1
    23   12   36 1
    24   13   18 ar
    25   13   14 ar
    26   14   15 ar
    27   14   37 1
    28   15   16 ar
    29   15   38 1
    30   16   17 ar
    31   16   39 1
    32   17   18 ar
    33   17   19 1
    34   18   40 1
    35   19   20 2
    36   19   21 am
    37   21   26 1
    38   21   22 1
    39   22   23 1
    40   22   41 1
    41   22   42 1
    42   23   24 1
    43   23   43 1
    44   23   44 1
    45   24   25 1
    46   24   45 1
    47   25   26 1
    48   25   46 1
    49   25   47 1
    50   26   48 1
    51   26   49 1
@<TRIPOS>MOLECULE
CHEMBL123904
   20    21     0     0     0
SMALL
USER_CHARGES

@<TRIPOS>ATOM
      1 C1         -0.0184    1.5028    0.0103 C.3       1 <0>        -0.1123
      2 C2          0.0021   -0.0041    0.0020 C.2       1 <0>         0.4190
      3 N1         -1.1725   -0.6571    0.0043 N.pl3     1 <0>        -0.5807
      4 C3         -1.2066   -2.0383   -0.0030 C.ar      1 <0>         0.0115
      5 C4          0.0130   -2.7375   -0.0128 C.ar      1 <0>        -0.1520
      6 C5          0.0192   -4.1308   -0.0200 C.ar      1 <0>        -0.1814
      7 C6         -1.1766   -4.8159   -0.0173 C.ar      1 <0>        -0.0802
      8 C7         -2.3820   -4.1297   -0.0076 C.ar      1 <0>        -0.2427
      9 C8         -2.4059   -2.7465   -0.0004 C.ar      1 <0>         0.2555
     10 O1         -3.5924   -2.0827    0.0095 O.3       1 <0>        -0.7270
     11 C9          1.2585   -1.9494   -0.0148 C.2       1 <0>         0.5298
     12 N2          1.1588   -0.6066   -0.0123 N.2       1 <0>        -0.6293
     13 O2          2.3473   -2.4974   -0.0227 O.2       1 <0>        -0.5273
     14 H1          1.0042    1.8801    0.0026 H         1 <0>         0.0995
     15 H2         -0.5455    1.8639   -0.8728 H         1 <0>         0.0867
     16 H3         -0.5286    1.8543    0.9071 H         1 <0>         0.0868
     17 H4          0.9548   -4.6702   -0.0279 H         1 <0>         0.1142
     18 H5         -1.1751   -5.8959   -0.0231 H         1 <0>         0.1039
     19 H6         -3.3110   -4.6806   -0.0056 H         1 <0>         0.1069
     20 H7         -2.0024   -0.1550    0.0114 H         1 <0>         0.4192
@<TRIPOS>BOND
     1    1    2 1
     2    1   14 1
     3    1   15 1
     4    1   16 1
     5    2   12 2
     6    2    3 1
     7    3    4 1
     8    3   20 1
     9    4    9 ar
    10    4    5 ar
    11    5    6 ar
    12    5   11 1
    13    6    7 ar
    14    6   17 1
    15    7    8 ar
    16    7   18 1
    17    8    9 ar
    18    8   19 1
    19    9   10 1
    20   11   12 1
    21   11   13 2
@<TRIPOS>MOLECULE
CHEMBL123904__1
   21    22     0     0     0
SMALL
USER_CHARGES

@<TRIPOS>ATOM
      1 C1         -0.0184    1.5028    0.0103 C.3       1 <0>        -0.1117
      2 C2          0.0021   -0.0041    0.0020 C.2       1 <0>         0.3938
      3 N1          0.0048   -0.6138   -1.1441 N.2       1 <0>        -0.5106
      4 C3          0.0227   -1.9674   -1.2294 C.ar      1 <0>         0.1288
      5 C4          0.0389   -2.7290   -0.0407 C.ar      1 <0>        -0.1884
      6 C5          0.0570   -4.1211   -0.1028 C.ar      1 <0>        -0.0485
      7 C6          0.0591   -4.7483   -1.3298 C.ar      1 <0>        -0.1215
      8 C7          0.0438   -4.0070   -2.5029 C.ar      1 <0>        -0.0992
      9 C8          0.0252   -2.6259   -2.4658 C.ar      1 <0>         0.1152
     10 O1          0.0094   -1.9109   -3.6214 O.3       1 <0>        -0.4784
     11 C9          0.0353   -2.0081    1.2410 C.2       1 <0>         0.5514
     12 N2          0.0222   -0.6555    1.1950 N.am      1 <0>        -0.6531
     13 O2          0.0483   -2.6046    2.3021 O.2       1 <0>        -0.5075
     14 H1          1.0042    1.8801    0.0026 H         1 <0>         0.0997
     15 H2         -0.5455    1.8639   -0.8728 H         1 <0>         0.1055
     16 H3         -0.5286    1.8543    0.9071 H         1 <0>         0.0876
     17 H4          0.0697   -4.7051    0.8056 H         1 <0>         0.1420
     18 H5          0.0731   -5.8271   -1.3790 H         1 <0>         0.1404
     19 H6          0.0464   -4.5154   -3.4557 H         1 <0>         0.1424
     20 H7          0.8881   -1.6920   -3.9605 H         1 <0>         0.3919
     21 H8          0.0231   -0.1465    2.0207 H         1 <0>         0.4201
@<TRIPOS>BOND
     1    1    2 1
     2    1   14 1
     3    1   15 1
     4    1   16 1
     5    2   12 1
     6    2    3 2
     7    3    4 1
     8    4    9 ar
     9    4    5 ar
    10    5    6 ar
    11    5   11 1
    12    6    7 ar
    13    6   17 1
    14    7    8 ar
    15    7   18 1
    16    8    9 ar
    17    8   19 1
    18    9   10 1
    19   10   20 1
    20   11   12 am
    21   11   13 2
    22   12   21 1
@<TRIPOS>MOLECULE
CHEMBL605916
   52    55     0     0     0
SMALL
USER_CHARGES

@<TRIPOS>ATOM
      1 C1          4.3660   -1.6037    3.6587 C.3       1 <0>        -0.0651
      2 N1          3.9718   -0.6762    2.5899 N.4       1 <0>        -0.3623
      3 C2          4.3221    0.6948    2.9800 C.3       1 <0>        -0.0354
      4 C3          3.9877    1.6555    1.8370 C.3       1 <0>        -0.1445
      5 C4          2.4888    1.5768    1.5332 C.3       1 <0>        -0.1431
      6 C5          2.1209    0.1281    1.2000 C.3       1 <0>        -0.1387
      7 C6          2.5245   -0.7761    2.3667 C.3       1 <0>         0.0077
      8 C7          1.7937   -0.3445    3.6120 C.2       1 <0>         0.5145
      9 O1          2.4180   -0.0316    4.6037 O.2       1 <0>        -0.5079
     10 N2          0.4466   -0.3063    3.6238 N.am      1 <0>        -0.6395
     11 C8         -0.2298    0.1845    4.7464 C.ar      1 <0>         0.1135
     12 C9         -1.4060    0.9064    4.5881 C.ar      1 <0>        -0.1046
     13 C10        -2.0731    1.3899    5.6951 C.ar      1 <0>        -0.0858
     14 C11        -1.5685    1.1548    6.9677 C.ar      1 <0>         0.1529
     15 C12        -0.3924    0.4329    7.1261 C.ar      1 <0>        -0.1170
     16 C13         0.2720   -0.0552    6.0194 C.ar      1 <0>        -0.0870
     17 N3         -2.2456    1.6461    8.0915 N.pl3     1 <0>        -0.2840
     18 C14        -1.8477    1.4836    9.3624 C.2       1 <0>         0.0847
     19 C15        -2.7742    2.1087   10.1795 C.ar      1 <0>        -0.2035
     20 C16        -2.9138    2.2853   11.5696 C.ar      1 <0>        -0.0070
     21 C17        -3.9718    2.9709   12.0759 C.ar      1 <0>        -0.1661
     22 C18        -4.9577    3.5267   11.2707 C.ar      1 <0>        -0.0179
     23 C19        -4.9131    3.4088    9.8901 C.ar      1 <0>        -0.1267
     24 C20        -3.7942    2.6798    9.2848 C.ar      1 <0>         0.1455
     25 N4         -3.4342    2.3844    8.0545 N.2       1 <0>        -0.2649
     26 C21        -5.9658    4.0025    9.0504 C.2       1 <0>         0.5630
     27 O2         -5.9136    3.8911    7.8402 O.2       1 <0>        -0.5270
     28 N5         -6.9878    4.6696    9.6222 N.am      1 <0>        -0.8524
     29 H1          4.1123   -2.6229    3.3672 H         1 <0>         0.1202
     30 H2          5.4407   -1.5304    3.8253 H         1 <0>         0.1273
     31 H3          3.8376   -1.3461    4.5766 H         1 <0>         0.1429
     32 H4          3.7553    0.9756    3.8677 H         1 <0>         0.1588
     33 H5          5.3885    0.7485    3.1990 H         1 <0>         0.1325
     34 H6          4.2469    2.6731    2.1292 H         1 <0>         0.1134
     35 H7          4.5543    1.3758    0.9488 H         1 <0>         0.0886
     36 H8          1.9225    1.9055    2.4047 H         1 <0>         0.0797
     37 H9          2.2551    2.2171    0.6826 H         1 <0>         0.1023
     38 H10         1.0457    0.0538    1.0370 H         1 <0>         0.1152
     39 H11         2.6487   -0.1834    0.2986 H         1 <0>         0.1074
     40 H12         2.2637   -1.8083    2.1328 H         1 <0>         0.1664
     41 H13        -0.0542   -0.6190    2.8541 H         1 <0>         0.4214
     42 H14        -1.7981    1.0895    3.5986 H         1 <0>         0.1427
     43 H15        -2.9874    1.9515    5.5720 H         1 <0>         0.1547
     44 H16         0.0001    0.2504    8.1156 H         1 <0>         0.1418
     45 H17         1.1841   -0.6202    6.1427 H         1 <0>         0.1486
     46 H18        -0.9628    0.9582    9.6898 H         1 <0>         0.1922
     47 H19        -2.1739    1.8719   12.2389 H         1 <0>         0.1334
     48 H20        -4.0496    3.0880   13.1467 H         1 <0>         0.1358
     49 H21        -5.7762    4.0614   11.7297 H         1 <0>         0.1374
     50 H22        -7.0295    4.7584   10.5873 H         1 <0>         0.4000
     51 H23        -7.6817    5.0609    9.0688 H         1 <0>         0.4077
     52 H24         4.4595   -0.9170    1.7401 H         1 <0>         0.4282
@<TRIPOS>BOND
     1    1    2 1
     2    1   29 1
     3    1   30 1
     4    1   31 1
     5    2    7 1
     6    2    3 1
     7    2   52 1
     8    3    4 1
     9    3   32 1
    10    3   33 1
    11    4    5 1
    12    4   34 1
    13    4   35 1
    14    5    6 1
    15    5   36 1
    16    5   37 1
    17    6    7 1
    18    6   38 1
    19    6   39 1
    20    7    8 1
    21    7   40 1
    22    8    9 2
    23    8   10 am
    24   10   11 1
    25   10   41 1
    26   11   16 ar
    27   11   12 ar
    28   12   13 ar
    29   12   42 1
    30   13   14 ar
    31   13   43 1
    32   14   15 ar
    33   14   17 1
    34   15   16 ar
    35   15   44 1
    36   16   45 1
    37   17   25 1
    38   17   18 1
    39   18   19 2
    40   18   46 1
    41   19   24 ar
    42   19   20 ar
    43   20   21 ar
    44   20   47 1
    45   21   22 ar
    46   21   48 1
    47   22   23 ar
    48   22   49 1
    49   23   24 ar
    50   23   26 1
    51   24   25 2
    52   26   27 2
    53   26   28 am
    54   28   50 1
    55   28   51 1
@<TRIPOS>MOLECULE
CHEMBL605916__1
   52    55     0     0     0
SMALL
USER_CHARGES

@<TRIPOS>ATOM
      1 C1          2.2104   -3.7733    1.4312 C.3       1 <0>        -0.0580
      2 N1          1.4204   -3.4485    2.6264 N.4       1 <0>        -0.3697
      3 C2          0.0459   -3.9319    2.4489 C.3       1 <0>        -0.0062
      4 C3         -0.7599   -3.6685    3.7227 C.3       1 <0>        -0.1500
      5 C4         -0.7790   -2.1636    4.0061 C.3       1 <0>        -0.1350
      6 C5          0.6618   -1.6565    4.1155 C.3       1 <0>        -0.1368
      7 C6          1.4150   -1.9945    2.8271 C.3       1 <0>         0.0110
      8 C7          2.8338   -1.4969    2.9301 C.2       1 <0>         0.5048
      9 O1          3.7029   -2.2269    3.3577 O.2       1 <0>        -0.5043
     10 N2          3.1368   -0.2407    2.5471 N.am      1 <0>        -0.6424
     11 C8          4.4688    0.1888    2.5474 C.ar      1 <0>         0.1130
     12 C9          4.9110    1.0814    1.5792 C.ar      1 <0>        -0.1058
     13 C10         6.2242    1.5053    1.5798 C.ar      1 <0>        -0.0858
     14 C11         7.1040    1.0394    2.5485 C.ar      1 <0>         0.1520
     15 C12         6.6619    0.1469    3.5167 C.ar      1 <0>        -0.1164
     16 C13         5.3473   -0.2730    3.5193 C.ar      1 <0>        -0.0887
     17 N3          8.4374    1.4694    2.5488 N.pl3     1 <0>        -0.2839
     18 C14         9.3715    1.0817    3.4303 C.2       1 <0>         0.0851
     19 C15        10.5550    1.7204    3.1017 C.ar      1 <0>        -0.2038
     20 C16        11.8600    1.7283    3.6309 C.ar      1 <0>        -0.0066
     21 C17        12.8317    2.4878    3.0612 C.ar      1 <0>        -0.1665
     22 C18        12.6018    3.2847    1.9470 C.ar      1 <0>        -0.0178
     23 C19        11.3518    3.3478    1.3506 C.ar      1 <0>        -0.1269
     24 C20        10.2622    2.5492    1.9208 C.ar      1 <0>         0.1454
     25 N4          8.9939    2.3626    1.6258 N.2       1 <0>        -0.2652
     26 C21        11.1236    4.1976    0.1711 C.2       1 <0>         0.5631
     27 O2         10.0215    4.2430   -0.3418 O.2       1 <0>        -0.5271
     28 N5         12.1357    4.9256   -0.3410 N.am      1 <0>        -0.8525
     29 H1          3.2247   -3.3929    1.5516 H         1 <0>         0.1278
     30 H2          2.2413   -4.8548    1.2990 H         1 <0>         0.1323
     31 H3          1.7513   -3.3133    0.5562 H         1 <0>         0.1230
     32 H4         -0.4173   -3.4095    1.6119 H         1 <0>         0.1315
     33 H5          0.0614   -5.0024    2.2441 H         1 <0>         0.1384
     34 H6         -1.7806   -4.0265    3.5883 H         1 <0>         0.1177
     35 H7         -0.2977   -4.1907    4.5604 H         1 <0>         0.0911
     36 H8         -1.2868   -1.6459    3.1923 H         1 <0>         0.0866
     37 H9         -1.3037   -1.9757    4.9428 H         1 <0>         0.1024
     38 H10         0.6574   -0.5763    4.2619 H         1 <0>         0.1171
     39 H11         1.1536   -2.1370    4.9613 H         1 <0>         0.0987
     40 H12         0.9226   -1.5133    1.9821 H         1 <0>         0.1586
     41 H13         2.4317    0.3656    2.2712 H         1 <0>         0.4214
     42 H14         4.2270    1.4433    0.8258 H         1 <0>         0.1426
     43 H15         6.5681    2.1989    0.8268 H         1 <0>         0.1547
     44 H16         7.3460   -0.2156    4.2697 H         1 <0>         0.1419
     45 H17         5.0025   -0.9635    4.2747 H         1 <0>         0.1509
     46 H18         9.2260    0.3942    4.2504 H         1 <0>         0.1923
     47 H19        12.0901    1.1258    4.4971 H         1 <0>         0.1334
     48 H20        13.8220    2.4715    3.4918 H         1 <0>         0.1357
     49 H21        13.4134    3.8675    1.5371 H         1 <0>         0.1373
     50 H22        13.0145    4.8894    0.0680 H         1 <0>         0.4000
     51 H23        11.9852    5.4858   -1.1185 H         1 <0>         0.4076
     52 H24         1.8311   -3.8966    3.4317 H         1 <0>         0.4320
@<TRIPOS>BOND
     1    1    2 1
     2    1   29 1
     3    1   30 1
     4    1   31 1
     5    2    7 1
     6    2    3 1
     7    2   52 1
     8    3    4 1
     9    3   32 1
    10    3   33 1
    11    4    5 1
    12    4   34 1
    13    4   35 1
    14    5    6 1
    15    5   36 1
    16    5   37 1
    17    6    7 1
    18    6   38 1
    19    6   39 1
    20    7    8 1
    21    7   40 1
    22    8    9 2
    23    8   10 am
    24   10   11 1
    25   10   41 1
    26   11   16 ar
    27   11   12 ar
    28   12   13 ar
    29   12   42 1
    30   13   14 ar
    31   13   43 1
    32   14   15 ar
    33   14   17 1
    34   15   16 ar
    35   15   44 1
    36   16   45 1
    37   17   25 1
    38   17   18 1
    39   18   19 2
    40   18   46 1
    41   19   24 ar
    42   19   20 ar
    43   20   21 ar
    44   20   47 1
    45   21   22 ar
    46   21   48 1
    47   22   23 ar
    48   22   49 1
    49   23   24 ar
    50   23   26 1
    51   24   25 2
    52   26   27 2
    53   26   28 am
    54   28   50 1
    55   28   51 1
@<TRIPOS>MOLECULE
CHEMBL593378
   49    52     0     0     0
SMALL
USER_CHARGES

@<TRIPOS>ATOM
      1 C1         -0.0181    1.3518   -0.0352 C.ar      1 <0>        -0.1744
      2 C2          1.1140    2.1028   -0.0329 C.ar      1 <0>        -0.0022
      3 C3          2.3809    1.4882   -0.0461 C.ar      1 <0>        -0.2115
      4 C4          3.6880    1.9443   -0.0483 C.2       1 <0>         0.0850
      5 N1          4.4964    0.8737   -0.0639 N.pl3     1 <0>        -0.2689
      6 N2          3.7336   -0.2999   -0.0722 N.2       1 <0>        -0.2655
      7 C5          2.4572    0.0181   -0.0620 C.ar      1 <0>         0.1391
      8 C6          1.2010   -0.7383   -0.0637 C.ar      1 <0>        -0.1258
      9 C7          0.0053   -0.0369   -0.0500 C.ar      1 <0>        -0.0226
     10 C8          1.2094   -2.2098   -0.0797 C.2       1 <0>         0.5615
     11 O1          2.2664   -2.8119   -0.0918 O.2       1 <0>        -0.5235
     12 N3          0.0461   -2.8904   -0.0811 N.am      1 <0>        -0.8547
     13 C9          5.8965    0.9231   -0.0712 C.ar      1 <0>         0.1210
     14 C10         6.5483    2.1496   -0.0565 C.ar      1 <0>        -0.1098
     15 C11         7.9274    2.1982   -0.0637 C.ar      1 <0>        -0.1219
     16 C12         8.6638    1.0206   -0.0854 C.ar      1 <0>         0.1488
     17 C13         8.0120   -0.2060   -0.0997 C.ar      1 <0>        -0.0993
     18 C14         6.6329   -0.2547   -0.0875 C.ar      1 <0>        -0.0807
     19 N4         10.0625    1.0699   -0.0932 N.am      1 <0>        -0.6753
     20 C15        10.7736    0.1296    0.5600 C.2       1 <0>         0.5142
     21 O2         10.2056   -0.8054    1.0837 O.2       1 <0>        -0.4947
     22 C16        12.2744    0.2399    0.6396 C.3       1 <0>         0.0377
     23 N5         12.8095   -0.8985    1.3983 N.3       1 <0>        -0.5208
     24 C17        12.3860   -0.8400    2.8049 C.3       1 <0>         0.0115
     25 C18        12.9145   -2.0728    3.5430 C.3       1 <0>         0.0652
     26 O3         14.3371   -2.1298    3.4078 O.3       1 <0>        -0.3859
     27 C19        14.7845   -2.1883    2.0507 C.3       1 <0>         0.0636
     28 C20        14.2751   -0.9567    1.2975 C.3       1 <0>         0.0180
     29 H1         -0.9739    1.8543   -0.0206 H         1 <0>         0.1319
     30 H2          1.0418    3.1803   -0.0212 H         1 <0>         0.1308
     31 H3          4.0012    2.9779   -0.0394 H         1 <0>         0.1914
     32 H4         -0.9273   -0.5815   -0.0512 H         1 <0>         0.1338
     33 H5         -0.7967   -2.4102   -0.0715 H         1 <0>         0.3987
     34 H6          0.0517   -3.8603   -0.0917 H         1 <0>         0.4059
     35 H7          5.9758    3.0652   -0.0397 H         1 <0>         0.1378
     36 H8          8.4342    3.1519   -0.0530 H         1 <0>         0.1397
     37 H9          8.5845   -1.1216   -0.1168 H         1 <0>         0.1523
     38 H10         6.1261   -1.2083   -0.0948 H         1 <0>         0.1478
     39 H11        10.5200    1.7808   -0.5687 H         1 <0>         0.4135
     40 H12        12.6930    0.2348   -0.3668 H         1 <0>         0.1117
     41 H13        12.5443    1.1695    1.1407 H         1 <0>         0.0712
     42 H14        12.7869    0.0614    3.2685 H         1 <0>         0.0400
     43 H15        11.2974   -0.8235    2.8569 H         1 <0>         0.1038
     44 H16        12.6516   -2.0054    4.5987 H         1 <0>         0.0996
     45 H17        12.4718   -2.9716    3.1137 H         1 <0>         0.0633
     46 H18        15.8742   -2.2045    2.0271 H         1 <0>         0.1009
     47 H19        14.3962   -3.0905    1.5780 H         1 <0>         0.0620
     48 H20        14.5653   -1.0254    0.2491 H         1 <0>         0.0894
     49 H21        14.7061   -0.0572    1.7370 H         1 <0>         0.0465
@<TRIPOS>BOND
     1    1    9 ar
     2    1    2 ar
     3    1   29 1
     4    2    3 ar
     5    2   30 1
     6    3    7 ar
     7    3    4 2
     8    4    5 1
     9    4   31 1
    10    5    6 1
    11    5   13 1
    12    6    7 2
    13    7    8 ar
    14    8    9 ar
    15    8   10 1
    16    9   32 1
    17   10   11 2
    18   10   12 am
    19   12   33 1
    20   12   34 1
    21   13   18 ar
    22   13   14 ar
    23   14   15 ar
    24   14   35 1
    25   15   16 ar
    26   15   36 1
    27   16   17 ar
    28   16   19 1
    29   17   18 ar
    30   17   37 1
    31   18   38 1
    32   19   20 am
    33   19   39 1
    34   20   21 2
    35   20   22 1
    36   22   23 1
    37   22   40 1
    38   22   41 1
    39   23   28 1
    40   23   24 1
    41   24   25 1
    42   24   42 1
    43   24   43 1
    44   25   26 1
    45   25   44 1
    46   25   45 1
    47   26   27 1
    48   27   28 1
    49   27   46 1
    50   27   47 1
    51   28   48 1
    52   28   49 1
@<TRIPOS>MOLECULE
CHEMBL542927
   46    49     0     0     0
SMALL
USER_CHARGES

@<TRIPOS>ATOM
      1 C1          5.0526   -6.9849   -0.0871 C.ar      1 <0>        -0.0908
      2 C2          6.2401   -6.2684   -0.0968 C.ar      1 <0>        -0.1124
      3 C3          6.2287   -4.8897   -0.0914 C.ar      1 <0>        -0.0516
      4 C4          5.0117   -4.2101   -0.0760 C.ar      1 <0>        -0.1278
      5 C5          3.8059   -4.9401   -0.0661 C.ar      1 <0>        -0.0104
      6 C6          3.8380   -6.3304   -0.0718 C.ar      1 <0>        -0.0868
      7 C7          2.5314   -4.1951   -0.0495 C.ar      1 <0>         0.1497
      8 C8          2.5649   -2.7940   -0.0439 C.ar      1 <0>         0.1235
      9 C9          1.3594   -2.0905   -0.0281 C.ar      1 <0>        -0.0848
     10 C10         0.1781   -2.8055   -0.0186 C.ar      1 <0>        -0.1452
     11 C11         0.2194   -4.1984   -0.0249 C.ar      1 <0>         0.3182
     12 N1          1.3716   -4.8431   -0.0403 N.ar      1 <0>        -0.4313
     13 N2         -0.9732   -4.9217   -0.0154 N.am      1 <0>        -0.6364
     14 C12        -0.9476   -6.2648   -0.1249 C.2       1 <0>         0.4953
     15 O1          0.1134   -6.8520   -0.1388 O.2       1 <0>        -0.4637
     16 C13        -2.2375   -7.0369   -0.2300 C.3       1 <0>        -0.0305
     17 N3         -1.9419   -8.4717   -0.3383 N.4       1 <0>        -0.3693
     18 C14        -1.2227   -8.7283   -1.5919 C.3       1 <0>        -0.0199
     19 C15        -0.8411  -10.2080   -1.6717 C.3       1 <0>        -0.1415
     20 C16        -2.1125  -11.0606   -1.6271 C.3       1 <0>        -0.1402
     21 C17        -2.8923  -10.7303   -0.3511 C.3       1 <0>        -0.1454
     22 C18        -3.1978   -9.2312   -0.3202 C.3       1 <0>        -0.0065
     23 N4          3.7674   -2.1074   -0.0542 N.am      1 <0>        -0.6368
     24 C19         4.9544   -2.7404   -0.0692 C.2       1 <0>         0.5567
     25 O2          5.9854   -2.0940   -0.0775 O.2       1 <0>        -0.5026
     26 H1          5.0789   -8.0646   -0.0961 H         1 <0>         0.1348
     27 H2          7.1827   -6.7954   -0.1084 H         1 <0>         0.1390
     28 H3          7.1578   -4.3391   -0.0987 H         1 <0>         0.1461
     29 H4          2.9172   -6.8948   -0.0646 H         1 <0>         0.1450
     30 H5          1.3509   -1.0106   -0.0231 H         1 <0>         0.1579
     31 H6         -0.7704   -2.2891   -0.0060 H         1 <0>         0.1518
     32 H7         -1.8209   -4.4581    0.0701 H         1 <0>         0.4278
     33 H8         -2.8424   -6.8566    0.6586 H         1 <0>         0.1624
     34 H9         -2.7850   -6.7109   -1.1144 H         1 <0>         0.1616
     35 H10        -1.8626   -8.4725   -2.4363 H         1 <0>         0.1247
     36 H11        -0.3198   -8.1185   -1.6236 H         1 <0>         0.1468
     37 H12        -0.3088  -10.3969   -2.6039 H         1 <0>         0.1118
     38 H13        -0.2009  -10.4649   -0.8277 H         1 <0>         0.0890
     39 H14        -2.7294  -10.8408   -2.4985 H         1 <0>         0.0814
     40 H15        -1.8433  -12.1168   -1.6267 H         1 <0>         0.0946
     41 H16        -3.8261  -11.2924   -0.3395 H         1 <0>         0.1142
     42 H17        -2.2946  -10.9980    0.5202 H         1 <0>         0.0889
     43 H18        -3.7531   -8.9927    0.5869 H         1 <0>         0.1320
     44 H19        -3.7957   -8.9647   -1.1918 H         1 <0>         0.1309
     45 H20         3.7535   -1.1375   -0.0502 H         1 <0>         0.4203
     46 H21        -1.3672   -8.7554    0.4410 H         1 <0>         0.4295
@<TRIPOS>BOND
     1    1    6 ar
     2    1    2 ar
     3    1   26 1
     4    2    3 ar
     5    2   27 1
     6    3    4 ar
     7    3   28 1
     8    4   24 1
     9    4    5 ar
    10    5    6 ar
    11    5    7 1
    12    6   29 1
    13    7   12 ar
    14    7    8 ar
    15    8    9 ar
    16    8   23 1
    17    9   10 ar
    18    9   30 1
    19   10   11 ar
    20   10   31 1
    21   11   12 ar
    22   11   13 1
    23   13   14 am
    24   13   32 1
    25   14   15 2
    26   14   16 1
    27   16   17 1
    28   16   33 1
    29   16   34 1
    30   17   22 1
    31   17   18 1
    32   17   46 1
    33   18   19 1
    34   18   35 1
    35   18   36 1
    36   19   20 1
    37   19   37 1
    38   19   38 1
    39   20   21 1
    40   20   39 1
    41   20   40 1
    42   21   22 1
    43   21   41 1
    44   21   42 1
    45   22   43 1
    46   22   44 1
    47   23   24 am
    48   23   45 1
    49   24   25 2
@<TRIPOS>MOLECULE
CHEMBL400581
   49    53     0     0     0
SMALL
USER_CHARGES

@<TRIPOS>ATOM
      1 C1          0.2491    1.6271   -1.5562 C.ar      1 <0>        -0.1202
      2 C2          0.5568    1.1033   -0.3133 C.ar      1 <0>        -0.1187
      3 C3          1.7432    0.4255   -0.1215 C.ar      1 <0>        -0.1074
      4 C4          2.6333    0.2686   -1.1846 C.ar      1 <0>        -0.0544
      5 C5          2.3167    0.7990   -2.4358 C.ar      1 <0>        -0.1092
      6 C6          1.1273    1.4750   -2.6143 C.ar      1 <0>        -0.1190
      7 C7          3.9063   -0.4559   -0.9861 C.2       1 <0>        -0.0743
      8 C8          3.8639   -1.7385   -0.7000 C.2       1 <0>        -0.1459
      9 C9          5.0951   -2.5712   -0.4861 C.3       1 <0>         0.0856
     10 N1          6.2564   -1.7073   -0.2392 N.3       1 <0>        -0.5197
     11 C10         6.3588   -0.6788   -1.2875 C.3       1 <0>         0.0510
     12 C11         5.1968    0.3024   -1.1254 C.3       1 <0>        -0.0738
     13 C12         7.4919   -2.4975   -0.1546 C.3       1 <0>         0.0412
     14 C13         7.6312   -3.2915    1.1569 C.3       1 <0>         0.1488
     15 N2          9.0449   -2.8681    1.1457 N.pl3     1 <0>        -0.6319
     16 C14         8.7128   -1.6898    0.3216 C.3       1 <0>         0.1167
     17 C15        10.2030   -3.3690    1.6850 C.2       1 <0>         0.6665
     18 N3         11.3671   -2.6907    1.4691 N.am      1 <0>        -0.6662
     19 H1         11.3583   -1.8750    0.9443 H         1 <0>         0.4113
     20 C16        12.5338   -3.1462    1.9815 C.2       1 <0>         0.5685
     21 O1         13.5793   -2.5506    1.7974 O.2       1 <0>        -0.5109
     22 C17        12.4919   -4.3859    2.7687 C.ar      1 <0>        -0.2362
     23 C18        13.6390   -4.9363    3.3388 C.ar      1 <0>        -0.0272
     24 C19        13.5431   -6.0925    4.0628 C.ar      1 <0>        -0.1620
     25 C20        12.3173   -6.7224    4.2353 C.ar      1 <0>        -0.0592
     26 C21        11.1775   -6.2050    3.6872 C.ar      1 <0>        -0.1328
     27 C22        11.2428   -5.0241    2.9422 C.ar      1 <0>         0.2106
     28 N4         10.1381   -4.4725    2.3869 N.2       1 <0>        -0.5877
     29 H2         -0.6827    2.1533   -1.7022 H         1 <0>         0.1219
     30 H3         -0.1330    1.2254    0.5087 H         1 <0>         0.1234
     31 H4          1.9826    0.0176    0.8494 H         1 <0>         0.1231
     32 H5          3.0016    0.6812   -3.2625 H         1 <0>         0.1213
     33 H6          0.8813    1.8863   -3.5822 H         1 <0>         0.1230
     34 H7          2.8986   -2.2153   -0.6146 H         1 <0>         0.1159
     35 H8          4.9434   -3.2260    0.3720 H         1 <0>         0.0919
     36 H9          5.2787   -3.1784   -1.3725 H         1 <0>         0.0520
     37 H10         7.3050   -0.1470   -1.1876 H         1 <0>         0.0816
     38 H11         6.3020   -1.1494   -2.2690 H         1 <0>         0.0433
     39 H12         5.1434    0.9516   -1.9994 H         1 <0>         0.0786
     40 H13         5.3596    0.9081   -0.2340 H         1 <0>         0.0843
     41 H14         7.6797   -3.0897   -1.0502 H         1 <0>         0.0861
     42 H15         7.0551   -2.8774    1.9844 H         1 <0>         0.1000
     43 H16         7.4934   -4.3660    1.0367 H         1 <0>         0.0915
     44 H17         9.4386   -1.4855   -0.4655 H         1 <0>         0.0845
     45 H18         8.4545   -0.8052    0.9038 H         1 <0>         0.1037
     46 H19        14.5962   -4.4532    3.2093 H         1 <0>         0.1337
     47 H20        14.4305   -6.5208    4.5050 H         1 <0>         0.1298
     48 H21        12.2642   -7.6348    4.8108 H         1 <0>         0.1312
     49 H22        10.2311   -6.7055    3.8295 H         1 <0>         0.1360
@<TRIPOS>BOND
     1    1    6 ar
     2    1    2 ar
     3    1   29 1
     4    2    3 ar
     5    2   30 1
     6    3    4 ar
     7    3   31 1
     8    4    5 ar
     9    4    7 1
    10    5    6 ar
    11    5   32 1
    12    6   33 1
    13    7   12 1
    14    7    8 2
    15    8    9 1
    16    8   34 1
    17    9   10 1
    18    9   35 1
    19    9   36 1
    20   10   11 1
    21   10   13 1
    22   11   12 1
    23   11   37 1
    24   11   38 1
    25   12   39 1
    26   12   40 1
    27   13   16 1
    28   13   14 1
    29   13   41 1
    30   14   15 1
    31   14   42 1
    32   14   43 1
    33   15   16 1
    34   15   17 1
    35   16   44 1
    36   16   45 1
    37   17   28 2
    38   17   18 1
    39   18   19 1
    40   18   20 am
    41   20   21 2
    42   20   22 1
    43   22   27 ar
    44   22   23 ar
    45   23   24 ar
    46   23   46 1
    47   24   25 ar
    48   24   47 1
    49   25   26 ar
    50   25   48 1
    51   26   27 ar
    52   26   49 1
    53   27   28 1
@<TRIPOS>MOLECULE
CHEMBL400581__1
   50    54     0     0     0
SMALL
USER_CHARGES

@<TRIPOS>ATOM
      1 C1         -0.0167    1.3792    0.0096 C.ar      1 <0>        -0.1018
      2 C2          1.1683    2.0931    0.0021 C.ar      1 <0>        -0.1153
      3 C3          2.3774    1.4286   -0.0134 C.ar      1 <0>        -0.1015
      4 C4          2.4032    0.0335   -0.0212 C.ar      1 <0>        -0.0854
      5 C5          1.2045   -0.6806   -0.0131 C.ar      1 <0>        -0.1007
      6 C6          0.0021   -0.0041    0.0020 C.ar      1 <0>        -0.1149
      7 C7          3.6950   -0.6848   -0.0384 C.2       1 <0>        -0.0437
      8 C8          4.4943   -0.5772    1.0009 C.2       1 <0>        -0.1895
      9 C9          5.8233   -1.2710    1.0843 C.3       1 <0>         0.0386
     10 N1          6.2689   -1.6856   -0.2511 N.4       1 <0>        -0.3806
     11 C10         5.1971   -2.4623   -0.8938 C.3       1 <0>        -0.0058
     12 C11         4.0456   -1.5174   -1.2408 C.3       1 <0>        -0.1132
     13 C12         7.4741   -2.5169   -0.1311 C.3       1 <0>        -0.0180
     14 C13         8.7766   -1.7057   -0.0066 C.3       1 <0>         0.1347
     15 N2          9.3609   -2.6907   -0.9375 N.pl3     1 <0>        -0.6355
     16 C14         8.0261   -3.0069   -1.4821 C.3       1 <0>         0.1028
     17 C15        10.6338   -3.1343   -1.1938 C.2       1 <0>         0.6592
     18 N3         10.8098   -4.0818   -2.1597 N.am      1 <0>        -0.6645
     19 H1         10.0420   -4.4231   -2.6443 H         1 <0>         0.4106
     20 C16        12.0468   -4.5491   -2.4475 C.2       1 <0>         0.5669
     21 O1         12.2182   -5.3937   -3.3072 O.2       1 <0>        -0.4951
     22 C17        13.1753   -3.9991   -1.6843 C.ar      1 <0>        -0.2201
     23 C18        14.4874   -4.4147   -1.9061 C.ar      1 <0>        -0.0314
     24 C19        15.5007   -3.8692   -1.1672 C.ar      1 <0>        -0.1432
     25 C20        15.2361   -2.9077   -0.2004 C.ar      1 <0>        -0.0587
     26 C21        13.9595   -2.4827    0.0377 C.ar      1 <0>        -0.1217
     27 C22        12.9022   -3.0209   -0.7014 C.ar      1 <0>         0.1892
     28 N4         11.6229   -2.6245   -0.5036 N.2       1 <0>        -0.5671
     29 H2         -0.9604    1.9041    0.0260 H         1 <0>         0.1299
     30 H3          1.1469    3.1729    0.0082 H         1 <0>         0.1303
     31 H4          3.3018    1.9870   -0.0200 H         1 <0>         0.1241
     32 H5          1.2178   -1.7605   -0.0194 H         1 <0>         0.1244
     33 H6         -0.9265   -0.5556    0.0079 H         1 <0>         0.1305
     34 H7          4.1807    0.0380    1.8312 H         1 <0>         0.1532
     35 H8          6.5585   -0.5912    1.5147 H         1 <0>         0.1430
     36 H9          5.7318   -2.1497    1.7228 H         1 <0>         0.1417
     37 H10         5.5771   -2.9272   -1.8035 H         1 <0>         0.1363
     38 H11         4.8408   -3.2312   -0.2083 H         1 <0>         0.1374
     39 H12         3.1757   -2.0990   -1.5459 H         1 <0>         0.1274
     40 H13         4.3502   -0.8642   -2.0585 H         1 <0>         0.1082
     41 H14         7.3737   -3.3059    0.6141 H         1 <0>         0.1787
     42 H15         8.7082   -0.6988   -0.4185 H         1 <0>         0.1078
     43 H16         9.2156   -1.7298    0.9908 H         1 <0>         0.1250
     44 H17         7.8658   -4.0698   -1.6626 H         1 <0>         0.1181
     45 H18         7.7372   -2.3822   -2.3273 H         1 <0>         0.1109
     46 H19        14.7021   -5.1621   -2.6556 H         1 <0>         0.1392
     47 H20        16.5179   -4.1899   -1.3370 H         1 <0>         0.1366
     48 H21        16.0514   -2.4901    0.3718 H         1 <0>         0.1374
     49 H22        13.7684   -1.7343    0.7926 H         1 <0>         0.1390
     50 H23         6.4742   -0.8691   -0.8071 H         1 <0>         0.4266
@<TRIPOS>BOND
     1    1    6 ar
     2    1    2 ar
     3    1   29 1
     4    2    3 ar
     5    2   30 1
     6    3    4 ar
     7    3   31 1
     8    4    5 ar
     9    4    7 1
    10    5    6 ar
    11    5   32 1
    12    6   33 1
    13    7   12 1
    14    7    8 2
    15    8    9 1
    16    8   34 1
    17    9   10 1
    18    9   35 1
    19    9   36 1
    20   10   11 1
    21   10   13 1
    22   10   50 1
    23   11   12 1
    24   11   37 1
    25   11   38 1
    26   12   39 1
    27   12   40 1
    28   13   16 1
    29   13   14 1
    30   13   41 1
    31   14   15 1
    32   14   42 1
    33   14   43 1
    34   15   16 1
    35   15   17 1
    36   16   44 1
    37   16   45 1
    38   17   28 2
    39   17   18 1
    40   18   19 1
    41   18   20 am
    42   20   21 2
    43   20   22 1
    44   22   27 ar
    45   22   23 ar
    46   23   24 ar
    47   23   46 1
    48   24   25 ar
    49   24   47 1
    50   25   26 ar
    51   25   48 1
    52   26   27 ar
    53   26   49 1
    54   27   28 1
@<TRIPOS>MOLECULE
CHEMBL1171806
   41    43     0     0     0
SMALL
USER_CHARGES

@<TRIPOS>ATOM
      1 C1         -0.0178    1.4648    0.0101 C.3       1 <0>        -0.0529
      2 N1          0.0021   -0.0041    0.0020 N.4       1 <0>        -0.3862
      3 C2          0.6897   -0.4778   -1.2066 C.3       1 <0>        -0.0477
      4 C3          0.7126   -0.4907    1.1921 C.3       1 <0>         0.0434
      5 C4         -0.0593   -0.1093    2.4290 C.ar      1 <0>        -0.1635
      6 C5          0.1907    1.1007    3.0512 C.ar      1 <0>        -0.0983
      7 C6         -0.5133    1.4557    4.1838 C.ar      1 <0>        -0.1120
      8 C7         -1.4781    0.5920    4.7008 C.ar      1 <0>         0.0225
      9 C8         -1.7256   -0.6262    4.0693 C.ar      1 <0>        -0.0579
     10 C9         -1.0190   -0.9679    2.9343 C.ar      1 <0>        -0.0946
     11 C10        -2.2372    0.9671    5.9172 C.2       1 <0>        -0.1566
     12 C11        -3.0823    2.0271    5.8987 C.2       1 <0>         0.1446
     13 N2         -3.7983    2.4043    6.9959 N.am      1 <0>        -0.6294
     14 H1         -4.3888    3.1708    6.9277 H         1 <0>         0.4217
     15 C12        -3.7159    1.7512    8.1711 C.2       1 <0>         0.5469
     16 O1         -4.3738    2.1219    9.1265 O.2       1 <0>        -0.5068
     17 C13        -2.8276    0.5891    8.2912 C.ar      1 <0>        -0.1375
     18 C14        -2.0873    0.1904    7.1568 C.ar      1 <0>        -0.0105
     19 C15        -1.2359   -0.9152    7.2378 C.ar      1 <0>         0.0948
     20 C16        -1.1339   -1.6085    8.4299 C.ar      1 <0>        -0.1015
     21 C17        -1.8675   -1.2169    9.5410 C.ar      1 <0>        -0.1158
     22 C18        -2.7035   -0.1234    9.4841 C.ar      1 <0>        -0.0500
     23 O2         -0.5148   -1.3055    6.1543 O.3       1 <0>        -0.4835
     24 H2          1.0047    1.8421    0.0024 H         1 <0>         0.1214
     25 H3         -0.5450    1.8259   -0.8730 H         1 <0>         0.1229
     26 H4         -0.5280    1.8163    0.9069 H         1 <0>         0.1240
     27 H5          1.7123   -0.1005   -1.2143 H         1 <0>         0.1221
     28 H6          0.7044   -1.5677   -1.2126 H         1 <0>         0.1235
     29 H7          0.1625   -0.1167   -2.0897 H         1 <0>         0.1240
     30 H8          0.8051   -1.5756    1.1418 H         1 <0>         0.1356
     31 H9          1.7055   -0.0428    1.2310 H         1 <0>         0.1340
     32 H10         0.9385    1.7687    2.6500 H         1 <0>         0.1298
     33 H11        -0.3170    2.4004    4.6690 H         1 <0>         0.1336
     34 H12        -2.4717   -1.2992    4.4653 H         1 <0>         0.1323
     35 H13        -1.2130   -1.9093    2.4417 H         1 <0>         0.1298
     36 H14        -3.1917    2.5916    4.9845 H         1 <0>         0.1628
     37 H15        -0.4772   -2.4633    8.4969 H         1 <0>         0.1384
     38 H16        -1.7756   -1.7709   10.4635 H         1 <0>         0.1408
     39 H17        -3.2692    0.1733   10.3549 H         1 <0>         0.1451
     40 H18         0.3561   -0.8902    6.0910 H         1 <0>         0.3847
     41 H19        -0.9445   -0.3533    0.0092 H         1 <0>         0.4261
@<TRIPOS>BOND
     1    1    2 1
     2    1   24 1
     3    1   25 1
     4    1   26 1
     5    2    3 1
     6    2    4 1
     7    2   41 1
     8    3   27 1
     9    3   28 1
    10    3   29 1
    11    4    5 1
    12    4   30 1
    13    4   31 1
    14    5   10 ar
    15    5    6 ar
    16    6    7 ar
    17    6   32 1
    18    7    8 ar
    19    7   33 1
    20    8    9 ar
    21    8   11 1
    22    9   10 ar
    23    9   34 1
    24   10   35 1
    25   11   18 1
    26   11   12 2
    27   12   13 1
    28   12   36 1
    29   13   14 1
    30   13   15 am
    31   15   16 2
    32   15   17 1
    33   17   22 ar
    34   17   18 ar
    35   18   19 ar
    36   19   20 ar
    37   19   23 1
    38   20   21 ar
    39   20   37 1
    40   21   22 ar
    41   21   38 1
    42   22   39 1
    43   23   40 1
@<TRIPOS>MOLECULE
CHEMBL250210
   55    59     0     0     0
SMALL
USER_CHARGES

@<TRIPOS>ATOM
      1 C1         -0.0032    1.4110    0.0022 C.ar      1 <0>        -0.1024
      2 C2          1.1843    2.1206   -0.0033 C.ar      1 <0>        -0.1154
      3 C3          2.3910    1.4517   -0.0180 C.ar      1 <0>        -0.1018
      4 C4          2.4118    0.0565   -0.0268 C.ar      1 <0>        -0.0839
      5 C5          1.2105   -0.6532   -0.0207 C.ar      1 <0>        -0.1008
      6 C6          0.0105    0.0276   -0.0065 C.ar      1 <0>        -0.1148
      7 C7          3.7010   -0.6665   -0.0431 C.2       1 <0>        -0.0439
      8 C8          4.4995   -0.5626    0.9972 C.2       1 <0>        -0.1889
      9 C9          5.8259   -1.2613    1.0817 C.3       1 <0>         0.0361
     10 N1          6.2715   -1.6764   -0.2535 N.4       1 <0>        -0.3837
     11 C10         5.1976   -2.4487   -0.8981 C.3       1 <0>        -0.0106
     12 C11         4.0500   -1.4994   -1.2457 C.3       1 <0>        -0.1131
     13 C12         7.4736   -2.5121   -0.1328 C.3       1 <0>         0.0801
     14 C13         8.5779   -1.7146    0.5641 C.3       1 <0>        -0.1461
     15 C14         9.8894   -2.5022    0.4563 C.3       1 <0>        -0.1160
     16 C15        10.3270   -2.5187   -1.0098 C.3       1 <0>        -0.0925
     17 C16         9.1835   -2.9409   -1.8856 C.2       1 <0>         0.0289
     18 C17         7.9256   -2.9342   -1.5004 C.2       1 <0>        -0.2170
     19 C18         9.4868   -3.3880   -3.2536 C.2       1 <0>         0.3853
     20 N2          8.4635   -3.8721   -4.0247 N.am      1 <0>        -0.6552
     21 H1          7.5645   -3.9126   -3.6627 H         1 <0>         0.4102
     22 C19         8.6994   -4.2938   -5.2889 C.2       1 <0>         0.5528
     23 O1          7.8019   -4.7265   -5.9882 O.2       1 <0>        -0.4981
     24 C20        10.0804   -4.2093   -5.7860 C.ar      1 <0>        -0.1853
     25 C21        10.4247   -4.6179   -7.0730 C.ar      1 <0>        -0.0457
     26 C22        11.7350   -4.5162   -7.4877 C.ar      1 <0>        -0.1166
     27 C23        12.7089   -4.0122   -6.6353 C.ar      1 <0>        -0.0717
     28 C24        12.3935   -3.6058   -5.3696 C.ar      1 <0>        -0.0944
     29 C25        11.0727   -3.6960   -4.9195 C.ar      1 <0>         0.1347
     30 N3         10.7224   -3.2999   -3.6803 N.2       1 <0>        -0.4715
     31 H2         -0.9451    1.9392    0.0179 H         1 <0>         0.1298
     32 H3          1.1669    3.2004    0.0036 H         1 <0>         0.1301
     33 H4          3.3174    2.0068   -0.0230 H         1 <0>         0.1238
     34 H5          1.2199   -1.7332   -0.0279 H         1 <0>         0.1243
     35 H6         -0.9200   -0.5206   -0.0021 H         1 <0>         0.1304
     36 H7          4.1872    0.0531    1.8277 H         1 <0>         0.1524
     37 H8          6.5630   -0.5844    1.5135 H         1 <0>         0.1426
     38 H9          5.7304   -2.1401    1.7193 H         1 <0>         0.1404
     39 H10         5.5771   -2.9142   -1.8078 H         1 <0>         0.1340
     40 H11         4.8378   -3.2168   -0.2136 H         1 <0>         0.1365
     41 H12         3.1784   -2.0776   -1.5523 H         1 <0>         0.1262
     42 H13         4.3579   -0.8466   -2.0625 H         1 <0>         0.1071
     43 H14         7.2406   -3.3968    0.4598 H         1 <0>         0.1509
     44 H15         8.6918   -0.7454    0.0785 H         1 <0>         0.0925
     45 H16         8.3208   -1.5733    1.6139 H         1 <0>         0.0998
     46 H17        10.6568   -2.0204    1.0621 H         1 <0>         0.0992
     47 H18         9.7327   -3.5236    0.8031 H         1 <0>         0.0816
     48 H19        10.6552   -1.5207   -1.3001 H         1 <0>         0.1047
     49 H20        11.1535   -3.2186   -1.1324 H         1 <0>         0.1086
     50 H21         7.1748   -3.2510   -2.2091 H         1 <0>         0.1279
     51 H22         9.6714   -5.0112   -7.7395 H         1 <0>         0.1438
     52 H23        12.0070   -4.8315   -8.4842 H         1 <0>         0.1418
     53 H24        13.7306   -3.9408   -6.9779 H         1 <0>         0.1424
     54 H25        13.1620   -3.2157   -4.7187 H         1 <0>         0.1451
     55 H26         6.4805   -0.8602   -0.8087 H         1 <0>         0.4255
@<TRIPOS>BOND
     1    1    6 ar
     2    1    2 ar
     3    1   31 1
     4    2    3 ar
     5    2   32 1
     6    3    4 ar
     7    3   33 1
     8    4    5 ar
     9    4    7 1
    10    5    6 ar
    11    5   34 1
    12    6   35 1
    13    7   12 1
    14    7    8 2
    15    8    9 1
    16    8   36 1
    17    9   10 1
    18    9   37 1
    19    9   38 1
    20   10   11 1
    21   10   13 1
    22   10   55 1
    23   11   12 1
    24   11   39 1
    25   11   40 1
    26   12   41 1
    27   12   42 1
    28   13   18 1
    29   13   14 1
    30   13   43 1
    31   14   15 1
    32   14   44 1
    33   14   45 1
    34   15   16 1
    35   15   46 1
    36   15   47 1
    37   16   17 1
    38   16   48 1
    39   16   49 1
    40   17   18 2
    41   17   19 1
    42   18   50 1
    43   19   30 2
    44   19   20 1
    45   20   21 1
    46   20   22 am
    47   22   23 2
    48   22   24 1
    49   24   29 ar
    50   24   25 ar
    51   25   26 ar
    52   25   51 1
    53   26   27 ar
    54   26   52 1
    55   27   28 ar
    56   27   53 1
    57   28   29 ar
    58   28   54 1
    59   29   30 1
@<TRIPOS>MOLECULE
CHEMBL250210__1
   54    58     0     0     0
SMALL
USER_CHARGES

@<TRIPOS>ATOM
      1 C1         -0.0033    1.4114    0.0039 C.ar      1 <0>        -0.1205
      2 C2          1.1843    2.1209   -0.0018 C.ar      1 <0>        -0.1188
      3 C3          2.3909    1.4520   -0.0168 C.ar      1 <0>        -0.1075
      4 C4          2.4117    0.0568   -0.0257 C.ar      1 <0>        -0.0535
      5 C5          1.2103   -0.6529   -0.0194 C.ar      1 <0>        -0.1093
      6 C6          0.0104    0.0280   -0.0049 C.ar      1 <0>        -0.1190
      7 C7          3.7008   -0.6662   -0.0422 C.2       1 <0>        -0.0744
      8 C8          4.4966   -0.5602    0.9990 C.2       1 <0>        -0.1458
      9 C9          5.8236   -1.2572    1.0901 C.3       1 <0>         0.0855
     10 N1          6.2587   -1.6979   -0.2413 N.3       1 <0>        -0.5246
     11 C10         5.1854   -2.4580   -0.9027 C.3       1 <0>         0.0455
     12 C11         4.0458   -1.4976   -1.2462 C.3       1 <0>        -0.0737
     13 C12         7.4912   -2.4927   -0.1561 C.3       1 <0>         0.1160
     14 C13         8.5669   -1.6840    0.5719 C.3       1 <0>        -0.1177
     15 C14         9.9064   -2.4174    0.4306 C.3       1 <0>        -0.1199
     16 C15        10.3406   -2.3575   -1.0353 C.3       1 <0>        -0.0671
     17 C16         9.2114   -2.7855   -1.9266 C.2       1 <0>        -0.0715
     18 C17         7.9551   -2.8413   -1.5403 C.2       1 <0>        -0.0961
     19 C18         9.5277   -3.1646   -3.3121 C.2       1 <0>         0.4285
     20 N2          8.5211   -3.6543   -4.1015 N.am      1 <0>        -0.6548
     21 H1          7.6251   -3.7429   -3.7406 H         1 <0>         0.4151
     22 C19         8.7693   -4.0149   -5.3822 C.2       1 <0>         0.5528
     23 O1          7.8868   -4.4514   -6.0978 O.2       1 <0>        -0.5096
     24 C20        10.1451   -3.8589   -5.8767 C.ar      1 <0>        -0.2016
     25 C21        10.5011   -4.2013   -7.1797 C.ar      1 <0>        -0.0409
     26 C22        11.8057   -4.0342   -7.5911 C.ar      1 <0>        -0.1375
     27 C23        12.7624   -3.5298   -6.7196 C.ar      1 <0>        -0.0714
     28 C24        12.4353   -3.1876   -5.4380 C.ar      1 <0>        -0.1092
     29 C25        11.1198   -3.3451   -4.9908 C.ar      1 <0>         0.1579
     30 N3         10.7581   -3.0134   -3.7360 N.2       1 <0>        -0.5050
     31 H2         -0.9452    1.9396    0.0197 H         1 <0>         0.1219
     32 H3          1.1669    3.2008    0.0051 H         1 <0>         0.1232
     33 H4          3.3174    2.0071   -0.0219 H         1 <0>         0.1228
     34 H5          1.2197   -1.7328   -0.0266 H         1 <0>         0.1212
     35 H6         -0.9202   -0.5201   -0.0003 H         1 <0>         0.1229
     36 H7          4.1814    0.0571    1.8273 H         1 <0>         0.1151
     37 H8          6.5637   -0.5718    1.5032 H         1 <0>         0.0934
     38 H9          5.7322   -2.1236    1.7451 H         1 <0>         0.0496
     39 H10         5.5687   -2.9142   -1.8154 H         1 <0>         0.0788
     40 H11         4.8170   -3.2324   -0.2299 H         1 <0>         0.0427
     41 H12         3.1699   -2.0675   -1.5564 H         1 <0>         0.0778
     42 H13         4.3595   -0.8443   -2.0603 H         1 <0>         0.0833
     43 H14         7.2925   -3.4089    0.3999 H         1 <0>         0.0639
     44 H15         8.6437   -0.6922    0.1264 H         1 <0>         0.0815
     45 H16         8.3073   -1.5955    1.6268 H         1 <0>         0.0716
     46 H17        10.6569   -1.9327    1.0550 H         1 <0>         0.0783
     47 H18         9.7884   -3.4573    0.7354 H         1 <0>         0.0668
     48 H19        10.6310   -1.3369   -1.2848 H         1 <0>         0.0864
     49 H20        11.1922   -3.0207   -1.1873 H         1 <0>         0.0880
     50 H21         7.2148   -3.1564   -2.2608 H         1 <0>         0.1089
     51 H22         9.7612   -4.5946   -7.8611 H         1 <0>         0.1386
     52 H23        12.0868   -4.2981   -8.5999 H         1 <0>         0.1348
     53 H24        13.7799   -3.4066   -7.0600 H         1 <0>         0.1357
     54 H25        13.1904   -2.7964   -4.7724 H         1 <0>         0.1410
@<TRIPOS>BOND
     1    1    6 ar
     2    1    2 ar
     3    1   31 1
     4    2    3 ar
     5    2   32 1
     6    3    4 ar
     7    3   33 1
     8    4    5 ar
     9    4    7 1
    10    5    6 ar
    11    5   34 1
    12    6   35 1
    13    7   12 1
    14    7    8 2
    15    8    9 1
    16    8   36 1
    17    9   10 1
    18    9   37 1
    19    9   38 1
    20   10   11 1
    21   10   13 1
    22   11   12 1
    23   11   39 1
    24   11   40 1
    25   12   41 1
    26   12   42 1
    27   13   18 1
    28   13   14 1
    29   13   43 1
    30   14   15 1
    31   14   44 1
    32   14   45 1
    33   15   16 1
    34   15   46 1
    35   15   47 1
    36   16   17 1
    37   16   48 1
    38   16   49 1
    39   17   18 2
    40   17   19 1
    41   18   50 1
    42   19   30 2
    43   19   20 1
    44   20   21 1
    45   20   22 am
    46   22   23 2
    47   22   24 1
    48   24   29 ar
    49   24   25 ar
    50   25   26 ar
    51   25   51 1
    52   26   27 ar
    53   26   52 1
    54   27   28 ar
    55   27   53 1
    56   28   29 ar
    57   28   54 1
    58   29   30 1
@<TRIPOS>MOLECULE
CHEMBL250210__2
   55    59     0     0     0
SMALL
USER_CHARGES

@<TRIPOS>ATOM
      1 C1         -0.0227    1.3613    0.0368 C.ar      1 <0>        -0.1024
      2 C2          1.1610    2.0774    0.0286 C.ar      1 <0>        -0.1153
      3 C3          2.3713    1.4152    0.0090 C.ar      1 <0>        -0.1018
      4 C4          2.3997    0.0202   -0.0021 C.ar      1 <0>        -0.0840
      5 C5          1.2023   -0.6962    0.0067 C.ar      1 <0>        -0.1006
      6 C6         -0.0014   -0.0219    0.0259 C.ar      1 <0>        -0.1149
      7 C7          3.6927   -0.6957   -0.0236 C.2       1 <0>        -0.0433
      8 C8          4.4940   -0.5892    1.0143 C.2       1 <0>        -0.1895
      9 C9          5.8244   -1.2807    1.0934 C.3       1 <0>         0.0331
     10 N1          6.2680   -1.6913   -0.2438 N.4       1 <0>        -0.3838
     11 C10         5.1963   -2.4684   -0.8863 C.3       1 <0>        -0.0083
     12 C11         4.0425   -1.5249   -1.2287 C.3       1 <0>        -0.1127
     13 C12         7.4751   -2.5206   -0.1282 C.3       1 <0>         0.0802
     14 C13         7.9240   -2.9601   -1.5234 C.3       1 <0>        -0.1463
     15 C14         9.3109   -3.6045   -1.4080 C.3       1 <0>        -0.1155
     16 C15        10.3208   -2.5192   -1.0295 C.3       1 <0>        -0.0939
     17 C16         9.8163   -1.7304    0.1435 C.2       1 <0>         0.0279
     18 C17         8.5614   -1.7278    0.5383 C.2       1 <0>        -0.2163
     19 C18        10.7808   -0.9129    0.8952 C.2       1 <0>         0.3858
     20 N2         10.3126   -0.1108    1.9019 N.am      1 <0>        -0.6551
     21 H1          9.3638   -0.0933    2.1028 H         1 <0>         0.4100
     22 C19        11.1662    0.6574    2.6182 C.2       1 <0>         0.5529
     23 O1         10.7675    1.3756    3.5164 O.2       1 <0>        -0.4981
     24 C20        12.5933    0.5911    2.2709 C.ar      1 <0>        -0.1853
     25 C21        13.5507    1.3428    2.9495 C.ar      1 <0>        -0.0457
     26 C22        14.8752    1.2419    2.5827 C.ar      1 <0>        -0.1166
     27 C23        15.2594    0.4006    1.5464 C.ar      1 <0>        -0.0717
     28 C24        14.3376   -0.3452    0.8678 C.ar      1 <0>        -0.0945
     29 C25        12.9859   -0.2652    1.2166 C.ar      1 <0>         0.1348
     30 N3         12.0487   -0.9896    0.5744 N.2       1 <0>        -0.4716
     31 H2         -0.9674    1.8843    0.0563 H         1 <0>         0.1298
     32 H3          1.1376    3.1571    0.0373 H         1 <0>         0.1300
     33 H4          3.2946    1.9753    0.0019 H         1 <0>         0.1235
     34 H5          1.2176   -1.7760   -0.0022 H         1 <0>         0.1246
     35 H6         -0.9289   -0.5752    0.0323 H         1 <0>         0.1304
     36 H7          4.1809    0.0236    1.8468 H         1 <0>         0.1517
     37 H8          6.5592   -0.6005    1.5240 H         1 <0>         0.1356
     38 H9          5.7358   -2.1611    1.7300 H         1 <0>         0.1413
     39 H10         5.5754   -2.9304   -1.7978 H         1 <0>         0.1417
     40 H11         4.8429   -3.2396   -0.2018 H         1 <0>         0.1350
     41 H12         3.1730   -2.1073   -1.5334 H         1 <0>         0.1265
     42 H13         4.3442   -0.8691   -2.0454 H         1 <0>         0.1077
     43 H14         7.2513   -3.4026    0.4718 H         1 <0>         0.1509
     44 H15         7.2157   -3.6849   -1.9246 H         1 <0>         0.0995
     45 H16         7.9769   -2.0926   -2.1813 H         1 <0>         0.0925
     46 H17         9.2940   -4.3741   -0.6363 H         1 <0>         0.0820
     47 H18         9.5898   -4.0469   -2.3644 H         1 <0>         0.0990
     48 H19        11.2715   -2.9850   -0.7698 H         1 <0>         0.1118
     49 H20        10.4680   -1.8509   -1.8780 H         1 <0>         0.1027
     50 H21         8.2976   -1.1199    1.3910 H         1 <0>         0.1278
     51 H22        13.2571    1.9989    3.7555 H         1 <0>         0.1438
     52 H23        15.6210    1.8223    3.1054 H         1 <0>         0.1418
     53 H24        16.3021    0.3354    1.2729 H         1 <0>         0.1424
     54 H25        14.6521   -0.9950    0.0645 H         1 <0>         0.1451
     55 H26         6.4707   -0.8731   -0.7984 H         1 <0>         0.4254
@<TRIPOS>BOND
     1    1    6 ar
     2    1    2 ar
     3    1   31 1
     4    2    3 ar
     5    2   32 1
     6    3    4 ar
     7    3   33 1
     8    4    5 ar
     9    4    7 1
    10    5    6 ar
    11    5   34 1
    12    6   35 1
    13    7   12 1
    14    7    8 2
    15    8    9 1
    16    8   36 1
    17    9   10 1
    18    9   37 1
    19    9   38 1
    20   10   11 1
    21   10   13 1
    22   10   55 1
    23   11   12 1
    24   11   39 1
    25   11   40 1
    26   12   41 1
    27   12   42 1
    28   13   18 1
    29   13   14 1
    30   13   43 1
    31   14   15 1
    32   14   44 1
    33   14   45 1
    34   15   16 1
    35   15   46 1
    36   15   47 1
    37   16   17 1
    38   16   48 1
    39   16   49 1
    40   17   18 2
    41   17   19 1
    42   18   50 1
    43   19   30 2
    44   19   20 1
    45   20   21 1
    46   20   22 am
    47   22   23 2
    48   22   24 1
    49   24   29 ar
    50   24   25 ar
    51   25   26 ar
    52   25   51 1
    53   26   27 ar
    54   26   52 1
    55   27   28 ar
    56   27   53 1
    57   28   29 ar
    58   28   54 1
    59   29   30 1
@<TRIPOS>MOLECULE
CHEMBL250210__3
   54    58     0     0     0
SMALL
USER_CHARGES

@<TRIPOS>ATOM
      1 C1         -0.0225    1.3621   -0.0191 C.ar      1 <0>        -0.1205
      2 C2          1.1612    2.0783   -0.0237 C.ar      1 <0>        -0.1188
      3 C3          2.3716    1.4161   -0.0351 C.ar      1 <0>        -0.1074
      4 C4          2.4001    0.0211   -0.0416 C.ar      1 <0>        -0.0535
      5 C5          1.2027   -0.6953   -0.0364 C.ar      1 <0>        -0.1095
      6 C6         -0.0010   -0.0211   -0.0254 C.ar      1 <0>        -0.1188
      7 C7          3.6933   -0.6948   -0.0544 C.2       1 <0>        -0.0746
      8 C8          4.4864   -0.5826    0.9882 C.2       1 <0>        -0.1468
      9 C9          5.8172   -1.2720    1.0830 C.3       1 <0>         0.0814
     10 N1          6.2573   -1.7125   -0.2468 N.3       1 <0>        -0.5169
     11 C10         5.1895   -2.4798   -0.9090 C.3       1 <0>         0.0475
     12 C11         4.0452   -1.5263   -1.2563 C.3       1 <0>        -0.0737
     13 C12         7.4940   -2.5002   -0.1579 C.3       1 <0>         0.1171
     14 C13         8.6085   -1.6303    0.4271 C.3       1 <0>        -0.1157
     15 C14         9.8101   -2.5282    0.7465 C.3       1 <0>        -0.1201
     16 C15         9.4304   -3.4540    1.9040 C.3       1 <0>        -0.0703
     17 C16         8.1149   -4.1198    1.6229 C.2       1 <0>        -0.0644
     18 C17         7.2597   -3.6971    0.7171 C.2       1 <0>        -0.1458
     19 C18         7.7614   -5.3139    2.4056 C.2       1 <0>         0.4236
     20 N2          6.5210   -5.8672    2.2289 N.am      1 <0>        -0.6550
     21 H1          5.9009   -5.4693    1.5980 H         1 <0>         0.4143
     22 C19         6.1556   -6.9663    2.9293 C.2       1 <0>         0.5522
     23 O1          5.0576   -7.4712    2.7845 O.2       1 <0>        -0.5091
     24 C20         7.1351   -7.5275    3.8711 C.ar      1 <0>        -0.2009
     25 C21         6.8543   -8.6570    4.6375 C.ar      1 <0>        -0.0411
     26 C22         7.8096   -9.1412    5.5047 C.ar      1 <0>        -0.1363
     27 C23         9.0433   -8.5136    5.6191 C.ar      1 <0>        -0.0712
     28 C24         9.3398   -7.4052    4.8773 C.ar      1 <0>        -0.1085
     29 C25         8.3916   -6.8899    3.9881 C.ar      1 <0>         0.1565
     30 N3          8.6495   -5.8023    3.2358 N.2       1 <0>        -0.5031
     31 H2         -0.9673    1.8852   -0.0059 H         1 <0>         0.1219
     32 H3          1.1377    3.1580   -0.0187 H         1 <0>         0.1233
     33 H4          3.2949    1.9763   -0.0395 H         1 <0>         0.1230
     34 H5          1.2181   -1.7752   -0.0418 H         1 <0>         0.1209
     35 H6         -0.9285   -0.5744   -0.0217 H         1 <0>         0.1229
     36 H7          4.1661    0.0344    1.8147 H         1 <0>         0.1139
     37 H8          6.5526   -0.5818    1.4963 H         1 <0>         0.0933
     38 H9          5.7293   -2.1378    1.7393 H         1 <0>         0.0479
     39 H10         5.5772   -2.9353   -1.8202 H         1 <0>         0.0840
     40 H11         4.8241   -3.2550   -0.2355 H         1 <0>         0.0377
     41 H12         3.1731   -2.1016   -1.5672 H         1 <0>         0.0775
     42 H13         4.3568   -0.8726   -2.0709 H         1 <0>         0.0852
     43 H14         7.7832   -2.8325   -1.1549 H         1 <0>         0.1054
     44 H15         8.9008   -0.8722   -0.2995 H         1 <0>         0.0805
     45 H16         8.2572   -1.1501    1.3403 H         1 <0>         0.0721
     46 H17        10.0656   -3.1236   -0.1300 H         1 <0>         0.0691
     47 H18        10.6615   -1.9117    1.0348 H         1 <0>         0.0781
     48 H19        10.2015   -4.2147    2.0262 H         1 <0>         0.0922
     49 H20         9.3518   -2.8715    2.8219 H         1 <0>         0.0833
     50 H21         6.3355   -4.2426    0.5962 H         1 <0>         0.1054
     51 H22         5.8963   -9.1483    4.5529 H         1 <0>         0.1388
     52 H23         7.5969  -10.0162    6.1010 H         1 <0>         0.1353
     53 H24         9.7791   -8.9073    6.3047 H         1 <0>         0.1362
     54 H25        10.3037   -6.9285    4.9772 H         1 <0>         0.1413
@<TRIPOS>BOND
     1    1    6 ar
     2    1    2 ar
     3    1   31 1
     4    2    3 ar
     5    2   32 1
     6    3    4 ar
     7    3   33 1
     8    4    5 ar
     9    4    7 1
    10    5    6 ar
    11    5   34 1
    12    6   35 1
    13    7   12 1
    14    7    8 2
    15    8    9 1
    16    8   36 1
    17    9   10 1
    18    9   37 1
    19    9   38 1
    20   10   11 1
    21   10   13 1
    22   11   12 1
    23   11   39 1
    24   11   40 1
    25   12   41 1
    26   12   42 1
    27   13   18 1
    28   13   14 1
    29   13   43 1
    30   14   15 1
    31   14   44 1
    32   14   45 1
    33   15   16 1
    34   15   46 1
    35   15   47 1
    36   16   17 1
    37   16   48 1
    38   16   49 1
    39   17   18 2
    40   17   19 1
    41   18   50 1
    42   19   30 2
    43   19   20 1
    44   20   21 1
    45   20   22 am
    46   22   23 2
    47   22   24 1
    48   24   29 ar
    49   24   25 ar
    50   25   26 ar
    51   25   51 1
    52   26   27 ar
    53   26   52 1
    54   27   28 ar
    55   27   53 1
    56   28   29 ar
    57   28   54 1
    58   29   30 1
@<TRIPOS>MOLECULE
CHEMBL1170695
   44    46     0     0     0
SMALL
USER_CHARGES

@<TRIPOS>ATOM
      1 C1          0.5001    0.9259    0.1477 C.3       1 <0>        -0.1168
      2 C2          0.3276   -0.5703    0.1989 C.ar      1 <0>        -0.0832
      3 C3          0.3218   -1.3016   -0.9564 C.ar      1 <0>        -0.0816
      4 C4          0.1635   -2.6809   -0.9265 C.ar      1 <0>        -0.1171
      5 C5          0.0083   -3.3461    0.2699 C.ar      1 <0>        -0.0558
      6 C6          0.0114   -2.6214    1.4613 C.ar      1 <0>        -0.1433
      7 C7          0.1788   -1.2176    1.4259 C.ar      1 <0>        -0.0150
      8 C8          0.1828   -0.4862    2.6941 C.2       1 <0>        -0.1578
      9 C9          0.0351   -1.1611    3.8455 C.2       1 <0>         0.1100
     10 N1         -0.1208   -2.5171    3.8844 N.am      1 <0>        -0.6346
     11 H1         -0.2234   -2.9521    4.7453 H         1 <0>         0.4101
     12 C10        -0.1497   -3.2704    2.7671 C.2       1 <0>         0.5514
     13 O1         -0.2923   -4.4776    2.8416 O.2       1 <0>        -0.5104
     14 C11         0.0419   -0.3939    5.1425 C.3       1 <0>        -0.1068
     15 C12        -1.3970   -0.0798    5.5569 C.3       1 <0>        -0.0218
     16 N2         -1.3903    0.6682    6.8212 N.4       1 <0>        -0.3827
     17 C13        -0.8643   -0.1900    7.9041 C.3       1 <0>        -0.0152
     18 C14        -1.6891    0.2019    9.1554 C.3       1 <0>        -0.1443
     19 C15        -3.0923    0.4482    8.5412 C.3       1 <0>        -0.1270
     20 C16        -2.7660    1.0703    7.1671 C.3       1 <0>         0.0210
     21 H2         -2.8308    2.1567    7.2271 H         1 <0>         0.1486
     22 C17        -3.7425    0.5450    6.1129 C.3       1 <0>         0.0609
     23 O2         -5.0802    0.8622    6.5026 O.3       1 <0>        -0.5558
     24 H3          1.5609    1.1713    0.1982 H         1 <0>         0.0770
     25 H4          0.0827    1.3080   -0.7839 H         1 <0>         0.0746
     26 H5         -0.0186    1.3805    0.9917 H         1 <0>         0.0669
     27 H6          0.4417   -0.7996   -1.9051 H         1 <0>         0.1345
     28 H7          0.1617   -3.2384   -1.8515 H         1 <0>         0.1375
     29 H8         -0.1150   -4.4189    0.2850 H         1 <0>         0.1413
     30 H9          0.3040    0.5870    2.7035 H         1 <0>         0.1512
     31 H10         0.5204   -0.9935    5.9169 H         1 <0>         0.1044
     32 H11         0.5936    0.5370    5.0111 H         1 <0>         0.1178
     33 H12        -1.8754    0.5199    4.7825 H         1 <0>         0.1418
     34 H13        -1.9487   -1.0106    5.6883 H         1 <0>         0.1343
     35 H14        -1.0172   -1.2419    7.6629 H         1 <0>         0.1321
     36 H15         0.1940    0.0125    8.0686 H         1 <0>         0.1400
     37 H16        -1.7165   -0.6150    9.8765 H         1 <0>         0.1193
     38 H17        -1.2978    1.1109    9.6121 H         1 <0>         0.1014
     39 H18        -3.6307   -0.4918    8.4206 H         1 <0>         0.0999
     40 H19        -3.6642    1.1453    9.1538 H         1 <0>         0.1169
     41 H20        -3.5241    1.0102    5.1516 H         1 <0>         0.0705
     42 H21        -3.6361   -0.5363    6.0258 H         1 <0>         0.0679
     43 H22        -5.7540    0.5585    5.8791 H         1 <0>         0.4066
     44 H23        -0.8100    1.4883    6.7283 H         1 <0>         0.4310
@<TRIPOS>BOND
     1    1    2 1
     2    1   24 1
     3    1   25 1
     4    1   26 1
     5    2    7 ar
     6    2    3 ar
     7    3    4 ar
     8    3   27 1
     9    4    5 ar
    10    4   28 1
    11    5    6 ar
    12    5   29 1
    13    6   12 1
    14    6    7 ar
    15    7    8 1
    16    8    9 2
    17    8   30 1
    18    9   10 1
    19    9   14 1
    20   10   11 1
    21   10   12 am
    22   12   13 2
    23   14   15 1
    24   14   31 1
    25   14   32 1
    26   15   16 1
    27   15   33 1
    28   15   34 1
    29   16   20 1
    30   16   17 1
    31   16   44 1
    32   17   18 1
    33   17   35 1
    34   17   36 1
    35   18   19 1
    36   18   37 1
    37   18   38 1
    38   19   20 1
    39   19   39 1
    40   19   40 1
    41   20   21 1
    42   20   22 1
    43   22   23 1
    44   22   41 1
    45   22   42 1
    46   23   43 1
@<TRIPOS>MOLECULE
CHEMBL193903
   50    54     0     0     0
SMALL
USER_CHARGES

@<TRIPOS>ATOM
      1 C1          0.8699    1.3905   -0.1209 C.ar      1 <0>        -0.0875
      2 C2          2.1291    1.9659   -0.2343 C.ar      1 <0>        -0.1114
      3 C3          3.2564    1.1791   -0.3239 C.ar      1 <0>        -0.0547
      4 C4          3.1259   -0.2088   -0.2995 C.ar      1 <0>        -0.1261
      5 C5          1.8427   -0.7905   -0.1836 C.ar      1 <0>        -0.0594
      6 C6          0.7182    0.0323   -0.0950 C.ar      1 <0>        -0.0979
      7 C7          1.7357   -2.2494   -0.1610 C.2       1 <0>         0.1373
      8 N1          2.8064   -2.9812   -0.2463 N.2       1 <0>        -0.2166
      9 N2          4.0851   -2.4353   -0.3615 N.am      1 <0>        -0.5340
     10 C8          4.2877   -1.1015   -0.3915 C.2       1 <0>         0.5279
     11 O1          5.4132   -0.6469   -0.4931 O.2       1 <0>        -0.5218
     12 C9          0.3837   -2.9038   -0.0385 C.3       1 <0>        -0.0175
     13 C10         0.5488   -4.4017   -0.0391 C.ar      1 <0>        -0.0572
     14 C11         0.5273   -5.0986   -1.2336 C.ar      1 <0>        -0.1148
     15 C12         0.6788   -6.4729   -1.2386 C.ar      1 <0>        -0.0970
     16 C13         0.8523   -7.1544   -0.0497 C.ar      1 <0>        -0.1163
     17 C14         0.8744   -6.4577    1.1514 C.ar      1 <0>         0.1460
     18 C15         0.7271   -5.0764    1.1524 C.ar      1 <0>        -0.1272
     19 N3          1.0497   -7.1446    2.3568 N.am      1 <0>        -0.6690
     20 C16         1.8223   -8.2483    2.3973 C.2       1 <0>         0.5696
     21 O2          2.4433   -8.5922    1.4102 O.2       1 <0>        -0.5076
     22 C17         1.9144   -9.0397    3.6402 C.ar      1 <0>        -0.2094
     23 C18         2.7196  -10.1866    3.6957 C.ar      1 <0>         0.0138
     24 C19         2.7732  -10.8933    4.8801 C.ar      1 <0>        -0.1716
     25 C20         2.0330  -10.4487    5.9714 C.ar      1 <0>         0.4026
     26 N4          1.2817   -9.3612    5.8872 N.ar      1 <0>        -0.5100
     27 C21         1.2061   -8.6544    4.7794 C.ar      1 <0>         0.1756
     28 N5          2.0826  -11.1588    7.1710 N.pl3     1 <0>        -0.3340
     29 C22         1.4135  -10.8498    8.3130 C.2       1 <0>         0.0787
     30 C23         1.7317  -11.7828    9.2388 C.2       1 <0>        -0.2579
     31 C24         2.6207  -12.6900    8.6500 C.2       1 <0>         0.0734
     32 N6          2.8264  -12.3213    7.4120 N.2       1 <0>        -0.2833
     33 H1         -0.0009    2.0251   -0.0478 H         1 <0>         0.1365
     34 H2          2.2253    3.0415   -0.2528 H         1 <0>         0.1373
     35 H3          4.2323    1.6333   -0.4125 H         1 <0>         0.1432
     36 H4         -0.2666   -0.4021   -0.0068 H         1 <0>         0.1419
     37 H5         -0.0885   -2.5907    0.8927 H         1 <0>         0.1059
     38 H6         -0.2413   -2.6068   -0.8807 H         1 <0>         0.1078
     39 H7          0.3914   -4.5681   -2.1645 H         1 <0>         0.1223
     40 H8          0.6611   -7.0141   -2.1730 H         1 <0>         0.1266
     41 H9          0.9702   -8.2279   -0.0542 H         1 <0>         0.1332
     42 H10         0.7479   -4.5312    2.0845 H         1 <0>         0.1240
     43 H11         0.6154   -6.8268    3.1638 H         1 <0>         0.4093
     44 H12         3.2835  -10.5091    2.8329 H         1 <0>         0.1603
     45 H13         3.3825  -11.7815    4.9589 H         1 <0>         0.1588
     46 H14         0.5862   -7.7705    4.7502 H         1 <0>         0.1695
     47 H15         0.7485  -10.0108    8.4554 H         1 <0>         0.1856
     48 H16         1.3650  -11.8211   10.2539 H         1 <0>         0.1607
     49 H17         3.0582  -13.5507    9.1340 H         1 <0>         0.1976
     50 H18         4.8489   -3.0303   -0.4215 H         1 <0>         0.4367
@<TRIPOS>BOND
     1    1    6 ar
     2    1    2 ar
     3    1   33 1
     4    2    3 ar
     5    2   34 1
     6    3    4 ar
     7    3   35 1
     8    4   10 1
     9    4    5 ar
    10    5    6 ar
    11    5    7 1
    12    6   36 1
    13    7    8 2
    14    7   12 1
    15    8    9 1
    16    9   10 am
    17    9   50 1
    18   10   11 2
    19   12   13 1
    20   12   37 1
    21   12   38 1
    22   13   18 ar
    23   13   14 ar
    24   14   15 ar
    25   14   39 1
    26   15   16 ar
    27   15   40 1
    28   16   17 ar
    29   16   41 1
    30   17   18 ar
    31   17   19 1
    32   18   42 1
    33   19   20 am
    34   19   43 1
    35   20   21 2
    36   20   22 1
    37   22   27 ar
    38   22   23 ar
    39   23   24 ar
    40   23   44 1
    41   24   25 ar
    42   24   45 1
    43   25   26 ar
    44   25   28 1
    45   26   27 ar
    46   27   46 1
    47   28   32 1
    48   28   29 1
    49   29   30 2
    50   29   47 1
    51   30   31 1
    52   30   48 1
    53   31   32 2
    54   31   49 1
@<TRIPOS>MOLECULE
CHEMBL549524
   37    39     0     0     0
SMALL
USER_CHARGES

@<TRIPOS>ATOM
      1 C1         -0.0178    1.4648    0.0101 C.3       1 <0>        -0.0542
      2 N1          0.0021   -0.0041    0.0020 N.4       1 <0>        -0.3871
      3 C2         -1.3761   -0.5125    0.0124 C.3       1 <0>        -0.0478
      4 C3          0.6897   -0.4778   -1.2066 C.3       1 <0>         0.0451
      5 C4          2.1367   -0.0597   -1.1578 C.ar      1 <0>        -0.1690
      6 C5          2.5220    1.1577   -1.6890 C.ar      1 <0>        -0.0672
      7 C6          3.8468    1.5407   -1.6410 C.ar      1 <0>        -0.1242
      8 C7          4.7951    0.7027   -1.0611 C.ar      1 <0>         0.1838
      9 C8          4.4094   -0.5166   -0.5355 C.ar      1 <0>        -0.1148
     10 C9          3.0752   -0.8903   -0.5777 C.ar      1 <0>        -0.0559
     11 C10         5.4065   -1.4555    0.0810 C.3       1 <0>         0.1459
     12 N2          6.0004   -0.8890    1.2821 N.am      1 <0>        -0.7212
     13 C11         6.7920    0.1907    1.2446 C.2       1 <0>         0.5929
     14 O1          7.3187    0.5817    2.2697 O.2       1 <0>        -0.5107
     15 C12         7.0351    0.9082   -0.0078 C.2       1 <0>        -0.0539
     16 N3          6.1310    1.1250   -1.0206 N.pl3     1 <0>        -0.3937
     17 C13         6.7508    1.8318   -2.0056 C.2       1 <0>         0.0144
     18 C14         8.0314    2.0687   -1.6368 C.2       1 <0>        -0.1806
     19 C15         8.2302    1.4919   -0.3784 C.2       1 <0>        -0.0929
     20 H1          1.0047    1.8421    0.0024 H         1 <0>         0.1217
     21 H2         -0.5450    1.8259   -0.8730 H         1 <0>         0.1239
     22 H3         -0.5280    1.8163    0.9069 H         1 <0>         0.1256
     23 H4         -1.9033   -0.1515   -0.8706 H         1 <0>         0.1235
     24 H5         -1.3613   -1.6024    0.0065 H         1 <0>         0.1246
     25 H6         -1.8863   -0.1610    0.9092 H         1 <0>         0.1256
     26 H7          0.6270   -1.5648   -1.2578 H         1 <0>         0.1399
     27 H8          0.2158   -0.0447   -2.0875 H         1 <0>         0.1391
     28 H9          1.7873    1.8074   -2.1411 H         1 <0>         0.1441
     29 H10         4.1484    2.4919   -2.0541 H         1 <0>         0.1478
     30 H11         2.7688   -1.8374   -0.1589 H         1 <0>         0.1446
     31 H12         4.9055   -2.3889    0.3375 H         1 <0>         0.1093
     32 H13         6.1950   -1.6630   -0.6425 H         1 <0>         0.0897
     33 H14         5.8174   -1.3071    2.1380 H         1 <0>         0.4115
     34 H15         6.2948    2.1513   -2.9310 H         1 <0>         0.1769
     35 H16         8.7699    2.6063   -2.2131 H         1 <0>         0.1580
     36 H17         9.1446    1.5028    0.1962 H         1 <0>         0.1588
     37 H18         0.4901   -0.3383    0.8195 H         1 <0>         0.4264
@<TRIPOS>BOND
     1    1    2 1
     2    1   20 1
     3    1   21 1
     4    1   22 1
     5    2    3 1
     6    2    4 1
     7    2   37 1
     8    3   23 1
     9    3   24 1
    10    3   25 1
    11    4    5 1
    12    4   26 1
    13    4   27 1
    14    5   10 ar
    15    5    6 ar
    16    6    7 ar
    17    6   28 1
    18    7    8 ar
    19    7   29 1
    20    8   16 1
    21    8    9 ar
    22    9   10 ar
    23    9   11 1
    24   10   30 1
    25   11   12 1
    26   11   31 1
    27   11   32 1
    28   12   13 am
    29   12   33 1
    30   13   14 2
    31   13   15 1
    32   15   19 2
    33   15   16 1
    34   16   17 1
    35   17   18 2
    36   17   34 1
    37   18   19 1
    38   18   35 1
    39   19   36 1
@<TRIPOS>MOLECULE
CHEMBL597313
   67    70     0     0     0
SMALL
USER_CHARGES

@<TRIPOS>ATOM
      1 C1         -1.4166   -3.1744   -0.7527 C.3       1 <0>        -0.1254
      2 C2         -1.6726   -4.0432    0.4518 C.2       1 <0>        -0.0458
      3 C3         -2.3006   -5.2496    0.3244 C.2       1 <0>        -0.1523
      4 C4         -2.5076   -6.0110    1.4949 C.2       1 <0>         0.4823
      5 O1         -3.0637   -7.0959    1.4346 O.2       1 <0>        -0.5244
      6 N1         -2.0848   -5.5280    2.6788 N.am      1 <0>        -0.4490
      7 H1         -2.2280   -6.0528    3.4819 H         1 <0>         0.4406
      8 N2         -1.4965   -4.3906    2.7712 N.2       1 <0>        -0.2134
      9 C5         -1.2664   -3.6355    1.7331 C.2       1 <0>         0.0666
     10 C6         -0.5648   -2.3136    1.9103 C.3       1 <0>        -0.0126
     11 C7         -0.2359   -2.1107    3.3669 C.ar      1 <0>        -0.0815
     12 C8         -1.1470   -1.4826    4.1991 C.ar      1 <0>        -0.0479
     13 C9         -0.8550   -1.2918    5.5363 C.ar      1 <0>        -0.1497
     14 C10         0.3518   -1.7284    6.0524 C.ar      1 <0>         0.1471
     15 C11         1.2754   -2.3637    5.2166 C.ar      1 <0>        -0.1718
     16 C12         0.9688   -2.5561    3.8677 C.ar      1 <0>        -0.0499
     17 C13         2.5666   -2.8330    5.7585 C.2       1 <0>         0.5732
     18 O2          2.5885   -3.5685    6.7262 O.2       1 <0>        -0.5075
     19 N3          3.7208   -2.4458    5.1802 N.am      1 <0>        -0.6136
     20 C14         3.7177   -1.4574    4.0925 C.3       1 <0>         0.0883
     21 C15         4.6472   -0.3004    4.4791 C.3       1 <0>         0.0952
     22 N4          5.9314   -0.8586    4.9252 N.am      1 <0>        -0.6045
     23 C16         5.9346   -1.8470    6.0129 C.3       1 <0>         0.0686
     24 C17         5.0055   -2.9999    5.6301 C.3       1 <0>         0.0982
     25 C18         7.0856   -0.4714    4.3469 C.2       1 <0>         0.5089
     26 O3          7.0785    0.3986    3.5020 O.2       1 <0>        -0.4789
     27 C19         8.3850   -1.1196    4.7501 C.3       1 <0>         0.0306
     28 C20         9.5221   -0.6468    3.8210 C.3       1 <0>        -0.1256
     29 C21        10.4086   -1.9033    3.6358 C.3       1 <0>        -0.1338
     30 C22         9.3676   -3.0476    3.5580 C.3       1 <0>        -0.1264
     31 C23         8.2868   -2.6461    4.5829 C.3       1 <0>        -0.1442
     32 N5          8.7019   -0.7855    6.1451 N.4       1 <0>        -0.5023
     33 C24         8.6977    0.6739    6.3122 C.3       1 <0>        -0.0579
     34 F1          0.6374   -1.5414    7.3596 F         1 <0>        -0.1257
     35 C25        -2.7577   -5.7509   -1.0212 C.3       1 <0>        -0.1022
     36 H2         -0.4479   -3.4271   -1.1837 H         1 <0>         0.0876
     37 H3         -2.1985   -3.3411   -1.4937 H         1 <0>         0.0842
     38 H4         -1.4184   -2.1267   -0.4521 H         1 <0>         0.0807
     39 H5          0.3554   -2.3094    1.3260 H         1 <0>         0.1028
     40 H6         -1.2154   -1.5083    1.5692 H         1 <0>         0.1070
     41 H7         -2.0906   -1.1398    3.8010 H         1 <0>         0.1405
     42 H8         -1.5701   -0.8005    6.1795 H         1 <0>         0.1466
     43 H9          1.6759   -3.0493    3.2172 H         1 <0>         0.1346
     44 H10         4.0755   -1.9230    3.1742 H         1 <0>         0.0836
     45 H11         2.7060   -1.0800    3.9441 H         1 <0>         0.1131
     46 H12         4.8088    0.3436    3.6146 H         1 <0>         0.1175
     47 H13         4.1977    0.2753    5.2883 H         1 <0>         0.0888
     48 H14         6.9463   -2.2244    6.1613 H         1 <0>         0.0813
     49 H15         5.5767   -1.3815    6.9312 H         1 <0>         0.0995
     50 H16         4.8441   -3.6408    6.4968 H         1 <0>         0.1183
     51 H17         5.4572   -3.5777    4.8237 H         1 <0>         0.0816
     52 H18         9.1200   -0.3189    2.8624 H         1 <0>         0.1255
     53 H19        10.0907    0.1553    4.2917 H         1 <0>         0.0964
     54 H20        10.9816   -1.8389    2.7108 H         1 <0>         0.0981
     55 H21        11.0692   -2.0396    4.4920 H         1 <0>         0.0787
     56 H22         8.9405   -3.1074    2.5570 H         1 <0>         0.0870
     57 H23         9.8235   -3.9976    3.8368 H         1 <0>         0.0934
     58 H24         8.4751   -3.1390    5.5367 H         1 <0>         0.0993
     59 H25         7.2993   -2.9181    4.2101 H         1 <0>         0.1073
     60 H26         8.0104   -1.1959    6.7547 H         1 <0>         0.4235
     61 H27         7.6903    1.0557    6.1461 H         1 <0>         0.1211
     62 H28         9.0192    0.9248    7.3230 H         1 <0>         0.1378
     63 H29         9.3803    1.1241    5.5915 H         1 <0>         0.1337
     64 H30        -1.9587   -6.3304   -1.4836 H         1 <0>         0.0803
     65 H31        -3.6375   -6.3817   -0.8943 H         1 <0>         0.0804
     66 H32        -3.0075   -4.9031   -1.6591 H         1 <0>         0.0799
     67 H33         9.6140   -1.1482    6.3789 H         1 <0>         0.4368
@<TRIPOS>BOND
     1    1    2 1
     2    1   36 1
     3    1   37 1
     4    1   38 1
     5    2    9 1
     6    2    3 2
     7    3    4 1
     8    3   35 1
     9    4    5 2
    10    4    6 am
    11    6    7 1
    12    6    8 1
    13    8    9 2
    14    9   10 1
    15   10   11 1
    16   10   39 1
    17   10   40 1
    18   11   16 ar
    19   11   12 ar
    20   12   13 ar
    21   12   41 1
    22   13   14 ar
    23   13   42 1
    24   14   15 ar
    25   14   34 1
    26   15   16 ar
    27   15   17 1
    28   16   43 1
    29   17   18 2
    30   17   19 am
    31   19   24 1
    32   19   20 1
    33   20   21 1
    34   20   44 1
    35   20   45 1
    36   21   22 1
    37   21   46 1
    38   21   47 1
    39   22   23 1
    40   22   25 am
    41   23   24 1
    42   23   48 1
    43   23   49 1
    44   24   50 1
    45   24   51 1
    46   25   26 2
    47   25   27 1
    48   27   31 1
    49   27   28 1
    50   27   32 1
    51   28   29 1
    52   28   52 1
    53   28   53 1
    54   29   30 1
    55   29   54 1
    56   29   55 1
    57   30   31 1
    58   30   56 1
    59   30   57 1
    60   31   58 1
    61   31   59 1
    62   32   33 1
    63   32   60 1
    64   32   67 1
    65   33   61 1
    66   33   62 1
    67   33   63 1
    68   35   64 1
    69   35   65 1
    70   35   66 1
@<TRIPOS>MOLECULE
CHEMBL597313__1
   66    69     0     0     0
SMALL
USER_CHARGES

@<TRIPOS>ATOM
      1 C1         -2.7951   -2.9897   -0.3587 C.3       1 <0>        -0.1083
      2 C2         -2.8752   -1.6874   -1.1128 C.ar      1 <0>        -0.0669
      3 C3         -3.6401   -1.5749   -2.2641 C.ar      1 <0>        -0.1998
      4 C4         -3.6684   -0.3419   -2.9100 C.ar      1 <0>         0.3660
      5 O1         -4.4025   -0.1814   -4.0399 O.3       1 <0>        -0.6931
      6 N1         -2.9767    0.6733   -2.4171 N.ar      1 <0>        -0.3580
      7 N2         -2.2703    0.5637   -1.3511 N.ar      1 <0>        -0.2006
      8 C5         -2.1906   -0.5640   -0.6727 C.ar      1 <0>        -0.0748
      9 C6         -1.3510   -0.6343    0.5768 C.3       1 <0>        -0.0036
     10 C7         -2.2202   -0.3791    1.7811 C.ar      1 <0>        -0.0670
     11 C8         -2.4918    0.9209    2.1730 C.ar      1 <0>        -0.0475
     12 C9         -3.2877    1.1656    3.2760 C.ar      1 <0>        -0.1518
     13 C10        -3.8192    0.1110    3.9961 C.ar      1 <0>         0.1338
     14 C11        -3.5486   -1.2037    3.6044 C.ar      1 <0>        -0.1789
     15 C12        -2.7470   -1.4405    2.4855 C.ar      1 <0>        -0.0660
     16 C13        -4.1113   -2.3362    4.3674 C.2       1 <0>         0.5780
     17 O2         -5.3055   -2.3858    4.5897 O.2       1 <0>        -0.5114
     18 N3         -3.3009   -3.3147    4.8171 N.am      1 <0>        -0.6144
     19 C14        -1.8433   -3.2087    4.6627 C.3       1 <0>         0.0862
     20 C15        -1.1919   -3.3607    6.0429 C.3       1 <0>         0.0957
     21 N4         -1.7501   -4.5525    6.6969 N.am      1 <0>        -0.6030
     22 C16        -3.2077   -4.6585    6.8513 C.3       1 <0>         0.0707
     23 C17        -3.8587   -4.5040    5.4762 C.3       1 <0>         0.0983
     24 C18        -0.9397   -5.5310    7.1467 C.2       1 <0>         0.5077
     25 O3          0.2642   -5.3969    7.0866 O.2       1 <0>        -0.4806
     26 C19        -1.5294   -6.7919    7.7242 C.3       1 <0>         0.0309
     27 C20        -0.4091   -7.8070    8.0310 C.3       1 <0>        -0.1256
     28 C21        -1.0320   -9.1795    7.6740 C.3       1 <0>        -0.1332
     29 C22        -1.8690   -8.8570    6.4113 C.3       1 <0>        -0.1263
     30 C23        -2.4576   -7.4594    6.6944 C.3       1 <0>        -0.1437
     31 N5         -2.2779   -6.4815    8.9495 N.4       1 <0>        -0.5034
     32 C24        -1.4048   -5.7643    9.8883 C.3       1 <0>        -0.0578
     33 F1         -4.5969    0.3504    5.0746 F         1 <0>        -0.1318
     34 C25        -4.4159   -2.7506   -2.7996 C.3       1 <0>        -0.0808
     35 H1         -3.5353   -2.9924    0.4414 H         1 <0>         0.0605
     36 H2         -2.9936   -3.8170   -1.0402 H         1 <0>         0.0654
     37 H3         -1.7984   -3.1017    0.0681 H         1 <0>         0.0610
     38 H4         -0.9008   -1.6238    0.6568 H         1 <0>         0.0770
     39 H5         -0.5653    0.1197    0.5294 H         1 <0>         0.0875
     40 H6         -2.0792    1.7478    1.6141 H         1 <0>         0.1469
     41 H7         -3.4948    2.1821    3.5764 H         1 <0>         0.1437
     42 H8         -2.5368   -2.4534    2.1751 H         1 <0>         0.1362
     43 H9         -1.4871   -3.9984    4.0012 H         1 <0>         0.0839
     44 H10        -1.5896   -2.2350    4.2437 H         1 <0>         0.1173
     45 H11        -0.1143   -3.4773    5.9280 H         1 <0>         0.1171
     46 H12        -1.4046   -2.4786    6.6468 H         1 <0>         0.0890
     47 H13        -3.4614   -5.6323    7.2703 H         1 <0>         0.0765
     48 H14        -3.5639   -3.8688    7.5129 H         1 <0>         0.0997
     49 H15        -4.9358   -4.3854    5.5942 H         1 <0>         0.1176
     50 H16        -3.6494   -5.3880    4.8739 H         1 <0>         0.0808
     51 H17         0.4642   -7.6110    7.4088 H         1 <0>         0.1263
     52 H18        -0.1417   -7.7725    9.0871 H         1 <0>         0.0950
     53 H19        -0.2547   -9.9090    7.4463 H         1 <0>         0.0969
     54 H20        -1.6722   -9.5349    8.4814 H         1 <0>         0.0773
     55 H21        -1.2315   -8.8305    5.5275 H         1 <0>         0.0877
     56 H22        -2.6670   -9.5887    6.2854 H         1 <0>         0.0927
     57 H23        -3.4633   -7.5539    7.1041 H         1 <0>         0.0985
     58 H24        -2.4815   -6.8715    5.7769 H         1 <0>         0.1088
     59 H25        -3.0727   -5.9034    8.7208 H         1 <0>         0.4240
     60 H26        -0.5033   -6.3506   10.0662 H         1 <0>         0.1328
     61 H27        -1.1319   -4.7978    9.4646 H         1 <0>         0.1217
     62 H28        -1.9313   -5.6124   10.8305 H         1 <0>         0.1365
     63 H29        -5.4144   -2.7565   -2.3624 H         1 <0>         0.0521
     64 H30        -4.4944   -2.6708   -3.8838 H         1 <0>         0.0673
     65 H31        -3.9001   -3.6750   -2.5397 H         1 <0>         0.0482
     66 H32        -2.5970   -7.3389    9.3750 H         1 <0>         0.4350
@<TRIPOS>BOND
     1    1    2 1
     2    1   35 1
     3    1   36 1
     4    1   37 1
     5    2    8 ar
     6    2    3 ar
     7    3    4 ar
     8    3   34 1
     9    4    5 1
    10    4    6 ar
    11    6    7 ar
    12    7    8 ar
    13    8    9 1
    14    9   10 1
    15    9   38 1
    16    9   39 1
    17   10   15 ar
    18   10   11 ar
    19   11   12 ar
    20   11   40 1
    21   12   13 ar
    22   12   41 1
    23   13   14 ar
    24   13   33 1
    25   14   15 ar
    26   14   16 1
    27   15   42 1
    28   16   17 2
    29   16   18 am
    30   18   23 1
    31   18   19 1
    32   19   20 1
    33   19   43 1
    34   19   44 1
    35   20   21 1
    36   20   45 1
    37   20   46 1
    38   21   22 1
    39   21   24 am
    40   22   23 1
    41   22   47 1
    42   22   48 1
    43   23   49 1
    44   23   50 1
    45   24   25 2
    46   24   26 1
    47   26   30 1
    48   26   27 1
    49   26   31 1
    50   27   28 1
    51   27   51 1
    52   27   52 1
    53   28   29 1
    54   28   53 1
    55   28   54 1
    56   29   30 1
    57   29   55 1
    58   29   56 1
    59   30   57 1
    60   30   58 1
    61   31   32 1
    62   31   59 1
    63   31   66 1
    64   32   60 1
    65   32   61 1
    66   32   62 1
    67   34   63 1
    68   34   64 1
    69   34   65 1
@<TRIPOS>MOLECULE
CHEMBL322268
   61    64     0     0     0
SMALL
USER_CHARGES

@<TRIPOS>ATOM
      1 C1         -0.0167    1.3786    0.0115 C.ar      1 <0>        -0.1772
      2 C2          0.0020   -0.0039   -0.0135 C.ar      1 <0>        -0.0709
      3 C3          1.2063   -0.6796   -0.0296 C.ar      1 <0>        -0.1988
      4 C4          2.3998    0.0311   -0.0206 C.ar      1 <0>         0.2160
      5 C5          2.3775    1.4198    0.0045 C.ar      1 <0>        -0.1987
      6 C6          1.1696    2.0892    0.0205 C.ar      1 <0>        -0.0708
      7 N1          3.6196   -0.6492   -0.0363 N.pl3     1 <0>        -0.6314
      8 C7          4.8859    0.0883   -0.1490 C.3       1 <0>         0.1080
      9 C8          5.7862   -0.3008    1.0301 C.3       1 <0>         0.0956
     10 N2          5.8265   -1.7667    1.1265 N.am      1 <0>        -0.6063
     11 C9          4.5602   -2.5041    1.2392 C.3       1 <0>         0.0863
     12 C10         3.6602   -2.1147    0.0657 C.3       1 <0>         0.1067
     13 C11         7.0035   -2.4231    1.1113 C.2       1 <0>         0.5126
     14 O1          8.0420   -1.8037    1.0175 O.2       1 <0>        -0.5335
     15 C12         7.0292   -3.9266    1.2110 C.3       1 <0>         0.1006
     16 N3          8.4168   -4.3949    1.1726 N.am      1 <0>        -0.7181
     17 C13         8.6853   -5.7135    1.2477 C.2       1 <0>         0.5269
     18 O2          7.7781   -6.5124    1.3469 O.2       1 <0>        -0.5352
     19 C14        10.1126   -6.1953    1.2082 C.3       1 <0>        -0.1614
     20 C15        10.1387   -7.7217    1.3094 C.3       1 <0>         0.1227
     21 N4         11.5263   -8.1900    1.2710 N.am      1 <0>        -0.5346
     22 C16        12.1082   -8.4808    0.0592 C.2       1 <0>         0.2012
     23 C17        13.3824   -8.9033    0.0262 C.2       1 <0>        -0.2480
     24 C18        14.0904   -9.0520    1.2500 C.2       1 <0>         0.5513
     25 O3         15.2437   -9.4432    1.2444 O.2       1 <0>        -0.5094
     26 N5         13.4832   -8.7589    2.4148 N.am      1 <0>        -0.6594
     27 H1         13.9644   -8.8585    3.2511 H         1 <0>         0.4320
     28 C19        12.2097   -8.3227    2.4189 C.2       1 <0>         0.6967
     29 O4         11.6711   -8.0499    3.4743 O.2       1 <0>        -0.5363
     30 C20        14.1090   -9.2222   -1.2524 C.3       1 <0>        -0.0460
     31 C21        13.1192   -9.4334   -2.3966 C.3       1 <0>        -0.1240
     32 C22        12.1536   -8.2422   -2.4235 C.3       1 <0>        -0.1172
     33 C23        11.2694   -8.3136   -1.1800 C.3       1 <0>        -0.0945
     34 H2         -0.9599    1.9047    0.0194 H         1 <0>         0.1187
     35 H3         -0.9263   -0.5558   -0.0201 H         1 <0>         0.1214
     36 H4          1.2202   -1.7594   -0.0487 H         1 <0>         0.1220
     37 H5          3.3036    1.9753    0.0119 H         1 <0>         0.1219
     38 H6          1.1515    3.1689    0.0400 H         1 <0>         0.1213
     39 H7          5.3781   -0.1712   -1.0863 H         1 <0>         0.0685
     40 H8          4.6889    1.1599   -0.1208 H         1 <0>         0.0984
     41 H9          6.7929    0.0827    0.8637 H         1 <0>         0.1054
     42 H10         5.3813    0.1155    1.9525 H         1 <0>         0.0762
     43 H11         4.7572   -3.5758    1.2110 H         1 <0>         0.0992
     44 H12         4.0680   -2.2447    2.1765 H         1 <0>         0.0816
     45 H13         2.6539   -2.4975    0.2358 H         1 <0>         0.0996
     46 H14         4.0631   -2.5346   -0.8559 H         1 <0>         0.0688
     47 H15         6.5669   -4.2365    2.1482 H         1 <0>         0.1024
     48 H16         6.4776   -4.3556    0.3744 H         1 <0>         0.1024
     49 H17         9.1423   -3.7560    1.0932 H         1 <0>         0.4143
     50 H18        10.5749   -5.8853    0.2710 H         1 <0>         0.1035
     51 H19        10.6642   -5.7662    2.0447 H         1 <0>         0.1080
     52 H20         9.6764   -8.0316    2.2466 H         1 <0>         0.1146
     53 H21         9.5872   -8.1507    0.4728 H         1 <0>         0.1087
     54 H22        14.7758   -8.3968   -1.5021 H         1 <0>         0.0780
     55 H23        14.6974  -10.1293   -1.1145 H         1 <0>         0.0836
     56 H24        13.6578   -9.4913   -3.3425 H         1 <0>         0.0781
     57 H25        12.5609  -10.3554   -2.2341 H         1 <0>         0.0696
     58 H26        12.7194   -7.3105   -2.4191 H         1 <0>         0.0738
     59 H27        11.5336   -8.2920   -3.3185 H         1 <0>         0.0814
     60 H28        10.5897   -9.1608   -1.2707 H         1 <0>         0.1019
     61 H29        10.6884   -7.3949   -1.0991 H         1 <0>         0.0919
@<TRIPOS>BOND
     1    1    6 ar
     2    1    2 ar
     3    1   34 1
     4    2    3 ar
     5    2   35 1
     6    3    4 ar
     7    3   36 1
     8    4    5 ar
     9    4    7 1
    10    5    6 ar
    11    5   37 1
    12    6   38 1
    13    7   12 1
    14    7    8 1
    15    8    9 1
    16    8   39 1
    17    8   40 1
    18    9   10 1
    19    9   41 1
    20    9   42 1
    21   10   11 1
    22   10   13 am
    23   11   12 1
    24   11   43 1
    25   11   44 1
    26   12   45 1
    27   12   46 1
    28   13   14 2
    29   13   15 1
    30   15   16 1
    31   15   47 1
    32   15   48 1
    33   16   17 am
    34   16   49 1
    35   17   18 2
    36   17   19 1
    37   19   20 1
    38   19   50 1
    39   19   51 1
    40   20   21 1
    41   20   52 1
    42   20   53 1
    43   21   28 am
    44   21   22 1
    45   22   33 1
    46   22   23 2
    47   23   24 1
    48   23   30 1
    49   24   25 2
    50   24   26 am
    51   26   27 1
    52   26   28 am
    53   28   29 2
    54   30   31 1
    55   30   54 1
    56   30   55 1
    57   31   32 1
    58   31   56 1
    59   31   57 1
    60   32   33 1
    61   32   58 1
    62   32   59 1
    63   33   60 1
    64   33   61 1
@<TRIPOS>MOLECULE
CHEMBL550053
   53    56     0     0     0
SMALL
USER_CHARGES

@<TRIPOS>ATOM
      1 C1          0.0418    1.4688    0.0027 C.3       1 <0>        -0.0473
      2 N1          0.0599   -0.0001   -0.0064 N.4       1 <0>        -0.3868
      3 C2         -1.3183   -0.5048   -0.0276 C.3       1 <0>        -0.0065
      4 C3         -1.3047   -2.0322   -0.1190 C.3       1 <0>        -0.1293
      5 C4         -0.5686   -2.6043    1.0959 C.3       1 <0>        -0.1225
      6 C5          0.8433   -2.0136    1.1497 C.3       1 <0>        -0.1407
      7 C6          0.7502   -0.4869    1.1940 C.3       1 <0>        -0.0045
      8 C7         -0.4831   -4.1039    0.9732 C.2       1 <0>         0.5144
      9 O1         -0.9633   -4.6618    0.0094 O.2       1 <0>        -0.5233
     10 N2          0.1270   -4.8250    1.9346 N.am      1 <0>        -0.7257
     11 C8          0.2101   -6.2827    1.8153 C.3       1 <0>         0.1179
     12 C9          0.9458   -6.8527    3.0297 C.3       1 <0>        -0.0559
     13 C10         1.0312   -8.3523    2.9070 C.2       1 <0>        -0.1728
     14 C11         2.0496   -9.0544    2.3870 C.2       1 <0>         0.0674
     15 N3          1.7721  -10.3933    2.4453 N.pl3     1 <0>        -0.5881
     16 H1          2.3595  -11.0975    2.1290 H         1 <0>         0.4222
     17 C12         0.5390  -10.5934    3.0176 C.ar      1 <0>         0.1248
     18 C13         0.0207   -9.3221    3.3388 C.ar      1 <0>        -0.1076
     19 C14        -1.2269   -9.2166    3.9429 C.ar      1 <0>         0.0019
     20 C15        -1.9513  -10.3725    4.2254 C.ar      1 <0>        -0.1617
     21 C16        -1.4262  -11.6291    3.9057 C.ar      1 <0>        -0.0364
     22 C17        -0.2043  -11.7358    3.3072 C.ar      1 <0>        -0.1367
     23 C18        -3.2769  -10.2410    4.8639 C.2       1 <0>         0.5685
     24 O2         -3.7928  -11.1955    5.4124 O.2       1 <0>        -0.5316
     25 N4         -3.9074   -9.0502    4.8316 N.am      1 <0>        -0.7295
     26 C19        -3.3279   -7.9072    4.1308 C.3       1 <0>         0.1155
     27 C20        -1.8106   -7.8758    4.2991 C.3       1 <0>        -0.1058
     28 H2          1.0649    1.8447    0.0118 H         1 <0>         0.1244
     29 H3         -0.4707    1.8314   -0.8884 H         1 <0>         0.1250
     30 H4         -0.4823    1.8202    0.8915 H         1 <0>         0.1223
     31 H5         -1.8303   -0.2004    0.8852 H         1 <0>         0.1305
     32 H6         -1.8418   -0.0943   -0.8910 H         1 <0>         0.1357
     33 H7         -2.3289   -2.4051   -0.1328 H         1 <0>         0.1201
     34 H8         -0.7931   -2.3377   -1.0317 H         1 <0>         0.0977
     35 H9         -1.1083   -2.3421    2.0059 H         1 <0>         0.1163
     36 H10         1.3545   -2.3731    2.0427 H         1 <0>         0.1167
     37 H11         1.3995   -2.3187    0.2633 H         1 <0>         0.0956
     38 H12         1.7537   -0.0631    1.2325 H         1 <0>         0.1354
     39 H13         0.1941   -0.1828    2.0808 H         1 <0>         0.1319
     40 H14         0.5111   -4.3787    2.7055 H         1 <0>         0.4013
     41 H15        -0.7953   -6.7015    1.7701 H         1 <0>         0.0755
     42 H16         0.7531   -6.5426    0.9066 H         1 <0>         0.0741
     43 H17         1.9511   -6.4340    3.0750 H         1 <0>         0.0792
     44 H18         0.4027   -6.5929    3.9384 H         1 <0>         0.0811
     45 H19         2.9544   -8.6262    1.9817 H         1 <0>         0.1730
     46 H20        -1.9935  -12.5204    4.1298 H         1 <0>         0.1411
     47 H21         0.1930  -12.7109    3.0666 H         1 <0>         0.1307
     48 H22        -4.7611   -8.9506    5.2813 H         1 <0>         0.4065
     49 H23        -3.5692   -7.9775    3.0701 H         1 <0>         0.0665
     50 H24        -3.7521   -6.9875    4.5335 H         1 <0>         0.0880
     51 H25        -1.5661   -7.6382    5.3345 H         1 <0>         0.0894
     52 H26        -1.3895   -7.1124    3.6449 H         1 <0>         0.0959
     53 H27         0.5474   -0.3243   -0.8282 H         1 <0>         0.4260
@<TRIPOS>BOND
     1    1    2 1
     2    1   28 1
     3    1   29 1
     4    1   30 1
     5    2    7 1
     6    2    3 1
     7    2   53 1
     8    3    4 1
     9    3   31 1
    10    3   32 1
    11    4    5 1
    12    4   33 1
    13    4   34 1
    14    5    6 1
    15    5    8 1
    16    5   35 1
    17    6    7 1
    18    6   36 1
    19    6   37 1
    20    7   38 1
    21    7   39 1
    22    8    9 2
    23    8   10 am
    24   10   11 1
    25   10   40 1
    26   11   12 1
    27   11   41 1
    28   11   42 1
    29   12   13 1
    30   12   43 1
    31   12   44 1
    32   13   18 1
    33   13   14 2
    34   14   15 1
    35   14   45 1
    36   15   16 1
    37   15   17 1
    38   17   22 ar
    39   17   18 ar
    40   18   19 ar
    41   19   27 1
    42   19   20 ar
    43   20   21 ar
    44   20   23 1
    45   21   22 ar
    46   21   46 1
    47   22   47 1
    48   23   24 2
    49   23   25 am
    50   25   26 1
    51   25   48 1
    52   26   27 1
    53   26   49 1
    54   26   50 1
    55   27   51 1
    56   27   52 1
@<TRIPOS>MOLECULE
CHEMBL578397
   42    46     0     0     0
SMALL
USER_CHARGES

@<TRIPOS>ATOM
      1 C1         -0.0164    1.3558    0.0095 C.2       1 <0>        -0.0993
      2 C2          1.1943    2.0685    0.0018 C.2       1 <0>        -0.1389
      3 C3          2.3720    1.4100   -0.0130 C.2       1 <0>         0.0541
      4 N1          2.4059    0.0450   -0.0207 N.pl3     1 <0>        -0.3607
      5 C4          3.4380   -0.8500   -0.0357 C.2       1 <0>        -0.0756
      6 C5          2.8867   -2.0967   -0.0375 C.2       1 <0>         0.0922
      7 N2          1.5502   -1.9662   -0.0237 N.2       1 <0>        -0.4808
      8 C6          1.2406   -0.6785   -0.0134 C.2       1 <0>         0.2286
      9 C7          0.0021   -0.0041    0.0020 C.2       1 <0>        -0.0800
     10 C8          3.6342   -3.3770   -0.0524 C.ar      1 <0>         0.0099
     11 C9          5.0294   -3.3696   -0.0606 C.ar      1 <0>        -0.1049
     12 C10         5.7244   -4.5577   -0.0740 C.ar      1 <0>        -0.0616
     13 C11         5.0323   -5.7713   -0.0795 C.ar      1 <0>        -0.0322
     14 C12         3.6353   -5.7776   -0.0713 C.ar      1 <0>        -0.0991
     15 C13         2.9422   -4.5884   -0.0525 C.ar      1 <0>        -0.0881
     16 C14         5.7771   -7.0469   -0.0944 C.2       1 <0>         0.3327
     17 N3          5.2086   -8.2909   -0.1063 N.pl3     1 <0>        -0.5933
     18 H1          4.2595   -8.4913   -0.1066 H         1 <0>         0.4256
     19 C15         6.2423   -9.2084   -0.1186 C.ar      1 <0>         0.0397
     20 C16         6.2963  -10.5941   -0.1342 C.ar      1 <0>        -0.0786
     21 C17         7.5166  -11.2422   -0.1441 C.ar      1 <0>        -0.1137
     22 C18         8.6972  -10.5229   -0.1392 C.ar      1 <0>        -0.0853
     23 C19         8.6731   -9.1305   -0.1240 C.ar      1 <0>        -0.0914
     24 C20         7.4313   -8.4578   -0.1133 C.ar      1 <0>         0.1068
     25 N4          7.0854   -7.1585   -0.1039 N.2       1 <0>        -0.4547
     26 C21         9.9325   -8.3657   -0.1183 C.2       1 <0>         0.5579
     27 O1          9.9055   -7.1499   -0.1050 O.2       1 <0>        -0.5113
     28 N5         11.1144   -9.0134   -0.1277 N.am      1 <0>        -0.8555
     29 H2         -0.9575    1.8854    0.0258 H         1 <0>         0.1451
     30 H3          1.1823    3.1484    0.0073 H         1 <0>         0.1534
     31 H4          3.2966    1.9680   -0.0192 H         1 <0>         0.1656
     32 H5          4.4919   -0.6143   -0.0452 H         1 <0>         0.1878
     33 H6         -0.9226   -0.5620    0.0078 H         1 <0>         0.1527
     34 H7          5.5642   -2.4313   -0.0567 H         1 <0>         0.1336
     35 H8          6.8043   -4.5517   -0.0806 H         1 <0>         0.1470
     36 H9          3.0993   -6.7152   -0.0759 H         1 <0>         0.1238
     37 H10         1.8622   -4.5931   -0.0417 H         1 <0>         0.1397
     38 H11         5.3816  -11.1684   -0.1382 H         1 <0>         0.1303
     39 H12         7.5484  -12.3217   -0.1556 H         1 <0>         0.1398
     40 H13         9.6433  -11.0437   -0.1468 H         1 <0>         0.1353
     41 H14        11.1359   -9.9831   -0.1382 H         1 <0>         0.3984
     42 H15        11.9435   -8.5099   -0.1239 H         1 <0>         0.4052
@<TRIPOS>BOND
     1    1    9 2
     2    1    2 1
     3    1   29 1
     4    2    3 2
     5    2   30 1
     6    3    4 1
     7    3   31 1
     8    4    8 1
     9    4    5 1
    10    5    6 2
    11    5   32 1
    12    6    7 1
    13    6   10 1
    14    7    8 2
    15    8    9 1
    16    9   33 1
    17   10   15 ar
    18   10   11 ar
    19   11   12 ar
    20   11   34 1
    21   12   13 ar
    22   12   35 1
    23   13   14 ar
    24   13   16 1
    25   14   15 ar
    26   14   36 1
    27   15   37 1
    28   16   25 2
    29   16   17 1
    30   17   18 1
    31   17   19 1
    32   19   24 ar
    33   19   20 ar
    34   20   21 ar
    35   20   38 1
    36   21   22 ar
    37   21   39 1
    38   22   23 ar
    39   22   40 1
    40   23   24 ar
    41   23   26 1
    42   24   25 1
    43   26   27 2
    44   26   28 am
    45   28   41 1
    46   28   42 1
@<TRIPOS>MOLECULE
CHEMBL578397__1
   43    47     0     0     0
SMALL
USER_CHARGES

@<TRIPOS>ATOM
      1 C1         -0.0164    1.3558    0.0095 C.2       1 <0>        -0.0171
      2 C2          1.1943    2.0685    0.0018 C.2       1 <0>        -0.1125
      3 C3          2.3720    1.4100   -0.0130 C.2       1 <0>         0.0864
      4 N1          2.4059    0.0450   -0.0207 N.pl3     1 <0>        -0.3226
      5 C4          3.4380   -0.8500   -0.0357 C.2       1 <0>        -0.0188
      6 C5          2.8867   -2.0967   -0.0375 C.2       1 <0>         0.1528
      7 N2          1.5502   -1.9662   -0.0237 N.pl3     1 <0>        -0.5082
      8 C6          1.2406   -0.6785   -0.0134 C.cat     1 <0>         0.3077
      9 C7          0.0021   -0.0041    0.0020 C.2       1 <0>        -0.1248
     10 C8          3.6342   -3.3770   -0.0524 C.ar      1 <0>        -0.0582
     11 C9          5.0294   -3.3696   -0.0606 C.ar      1 <0>        -0.0725
     12 C10         5.7244   -4.5577   -0.0740 C.ar      1 <0>        -0.0613
     13 C11         5.0323   -5.7713   -0.0795 C.ar      1 <0>         0.0172
     14 C12         3.6353   -5.7776   -0.0713 C.ar      1 <0>        -0.0968
     15 C13         2.9422   -4.5884   -0.0525 C.ar      1 <0>        -0.0912
     16 C14         5.7771   -7.0469   -0.0944 C.2       1 <0>         0.2992
     17 N3          5.2086   -8.2909   -0.1063 N.pl3     1 <0>        -0.5898
     18 H1          4.2595   -8.4913   -0.1066 H         1 <0>         0.4256
     19 C15         6.2423   -9.2084   -0.1186 C.ar      1 <0>         0.0501
     20 C16         6.2963  -10.5941   -0.1342 C.ar      1 <0>        -0.0827
     21 C17         7.5166  -11.2422   -0.1441 C.ar      1 <0>        -0.1006
     22 C18         8.6972  -10.5229   -0.1392 C.ar      1 <0>        -0.0825
     23 C19         8.6731   -9.1305   -0.1240 C.ar      1 <0>        -0.0842
     24 C20         7.4313   -8.4578   -0.1133 C.ar      1 <0>         0.0998
     25 N4          7.0854   -7.1585   -0.1039 N.2       1 <0>        -0.4366
     26 C21         9.9325   -8.3657   -0.1183 C.2       1 <0>         0.5586
     27 O1          9.9055   -7.1499   -0.1050 O.2       1 <0>        -0.5145
     28 N5         11.1144   -9.0134   -0.1277 N.am      1 <0>        -0.8522
     29 H2         -0.9575    1.8854    0.0258 H         1 <0>         0.1759
     30 H3          1.1823    3.1484    0.0073 H         1 <0>         0.1844
     31 H4          3.2966    1.9680   -0.0192 H         1 <0>         0.2023
     32 H5          4.4919   -0.6143   -0.0452 H         1 <0>         0.2295
     33 H6         -0.9226   -0.5620    0.0078 H         1 <0>         0.1795
     34 H7          5.5642   -2.4313   -0.0567 H         1 <0>         0.1446
     35 H8          6.8043   -4.5517   -0.0806 H         1 <0>         0.1604
     36 H9          3.0993   -6.7152   -0.0759 H         1 <0>         0.1360
     37 H10         1.8622   -4.5931   -0.0417 H         1 <0>         0.1300
     38 H11         5.3816  -11.1684   -0.1382 H         1 <0>         0.1337
     39 H12         7.5484  -12.3217   -0.1556 H         1 <0>         0.1449
     40 H13         9.6433  -11.0437   -0.1468 H         1 <0>         0.1400
     41 H14        11.1359   -9.9831   -0.1382 H         1 <0>         0.4002
     42 H15        11.9435   -8.5099   -0.1239 H         1 <0>         0.4078
     43 H16         0.9135   -2.6979   -0.0220 H         1 <0>         0.4600
@<TRIPOS>BOND
     1    1    9 2
     2    1    2 1
     3    1   29 1
     4    2    3 2
     5    2   30 1
     6    3    4 1
     7    3   31 1
     8    4    8 1
     9    4    5 1
    10    5    6 2
    11    5   32 1
    12    6    7 1
    13    6   10 1
    14    7    8 2
    15    7   43 1
    16    8    9 1
    17    9   33 1
    18   10   15 ar
    19   10   11 ar
    20   11   12 ar
    21   11   34 1
    22   12   13 ar
    23   12   35 1
    24   13   14 ar
    25   13   16 1
    26   14   15 ar
    27   14   36 1
    28   15   37 1
    29   16   25 2
    30   16   17 1
    31   17   18 1
    32   17   19 1
    33   19   24 ar
    34   19   20 ar
    35   20   21 ar
    36   20   38 1
    37   21   22 ar
    38   21   39 1
    39   22   23 ar
    40   22   40 1
    41   23   24 ar
    42   23   26 1
    43   24   25 1
    44   26   27 2
    45   26   28 am
    46   28   41 1
    47   28   42 1
@<TRIPOS>MOLECULE
CHEMBL125200
   23    24     0     0     0
SMALL
USER_CHARGES

@<TRIPOS>ATOM
      1 C1         -0.0184    1.5028    0.0103 C.3       1 <0>        -0.1182
      2 C2          0.0021   -0.0041    0.0020 C.ar      1 <0>        -0.0925
      3 C3          0.0058   -0.6906   -1.2006 C.ar      1 <0>        -0.0904
      4 C4          0.0247   -2.0737   -1.2182 C.ar      1 <0>        -0.1269
      5 C5          0.0391   -2.7831   -0.0330 C.ar      1 <0>        -0.0609
      6 C6          0.0353   -2.0971    1.1781 C.ar      1 <0>        -0.1359
      7 C7          0.0228   -0.6997    1.1905 C.ar      1 <0>        -0.0531
      8 C8          0.0274    0.0233    2.5110 C.3       1 <0>        -0.1064
      9 C9         -0.7541   -0.7809    3.5474 C.3       1 <0>         0.1124
     10 N1         -0.2946   -2.1664    3.5918 N.am      1 <0>        -0.7257
     11 C10         0.0497   -2.8205    2.4678 C.2       1 <0>         0.5648
     12 O1          0.3813   -3.9890    2.5150 O.2       1 <0>        -0.5353
     13 H1          1.0042    1.8801    0.0026 H         1 <0>         0.0738
     14 H2         -0.5455    1.8639   -0.8728 H         1 <0>         0.0699
     15 H3         -0.5286    1.8543    0.9071 H         1 <0>         0.0714
     16 H4         -0.0064   -0.1425   -2.1312 H         1 <0>         0.1288
     17 H5          0.0278   -2.6003   -2.1611 H         1 <0>         0.1318
     18 H6          0.0528   -3.8629   -0.0460 H         1 <0>         0.1357
     19 H7          1.0553    0.1497    2.8509 H         1 <0>         0.0891
     20 H8         -0.4351    1.0027    2.3890 H         1 <0>         0.1014
     21 H9         -0.6181   -0.3273    4.5291 H         1 <0>         0.0915
     22 H10        -1.8130   -0.7633    3.2896 H         1 <0>         0.0683
     23 H11        -0.2441   -2.6243    4.4455 H         1 <0>         0.4064
@<TRIPOS>BOND
     1    1    2 1
     2    1   13 1
     3    1   14 1
     4    1   15 1
     5    2    7 ar
     6    2    3 ar
     7    3    4 ar
     8    3   16 1
     9    4    5 ar
    10    4   17 1
    11    5    6 ar
    12    5   18 1
    13    6   11 1
    14    6    7 ar
    15    7    8 1
    16    8    9 1
    17    8   19 1
    18    8   20 1
    19    9   10 1
    20    9   21 1
    21    9   22 1
    22   10   11 am
    23   10   23 1
    24   11   12 2
@<TRIPOS>MOLECULE
CHEMBL1093845
   42    45     0     0     0
SMALL
USER_CHARGES

@<TRIPOS>ATOM
      1 C1         -0.0167    1.3774    0.0096 C.ar      1 <0>        -0.1036
      2 C2          1.1628    2.0989    0.0022 C.ar      1 <0>        -0.0823
      3 C3          2.3901    1.4411   -0.0130 C.ar      1 <0>        -0.0875
      4 C4          2.4210    0.0291   -0.0208 C.ar      1 <0>         0.1013
      5 C5          1.2101   -0.6854   -0.0131 C.ar      1 <0>         0.0464
      6 C6          0.0021   -0.0041    0.0020 C.ar      1 <0>        -0.0810
      7 N1          1.5541   -2.0239   -0.0235 N.pl3     1 <0>        -0.5909
      8 H1          0.9423   -2.7767   -0.0217 H         1 <0>         0.4255
      9 C7          2.9199   -2.0865   -0.0368 C.2       1 <0>         0.3071
     10 N2          3.4185   -0.8725   -0.0351 N.2       1 <0>        -0.4448
     11 C8          3.7148   -3.3333   -0.0503 C.ar      1 <0>        -0.0064
     12 C9          3.0740   -4.5730   -0.0559 C.ar      1 <0>        -0.0950
     13 C10         3.8215   -5.7325   -0.0689 C.ar      1 <0>        -0.0985
     14 C11         5.2035   -5.6681   -0.0761 C.ar      1 <0>        -0.0935
     15 C12         5.8450   -4.4422   -0.0701 C.ar      1 <0>        -0.1190
     16 C13         5.1092   -3.2753   -0.0634 C.ar      1 <0>        -0.0611
     17 C14         6.0137   -6.9387   -0.0898 C.3       1 <0>        -0.0627
     18 C15         6.9974   -6.9608    1.1026 C.3       1 <0>        -0.1435
     19 C16         8.2745   -7.5855    0.4867 C.3       1 <0>        -0.0046
     20 N3          8.3075   -7.0110   -0.8826 N.4       1 <0>        -0.5182
     21 C17         6.9030   -6.9920   -1.3459 C.3       1 <0>        -0.0051
     22 C18         3.6461    2.2117   -0.0213 C.2       1 <0>         0.5596
     23 O1          4.7151    1.6321   -0.0346 O.2       1 <0>        -0.5166
     24 N4          3.6101    3.5590   -0.0142 N.am      1 <0>        -0.8525
     25 H2         -0.9622    1.8990    0.0260 H         1 <0>         0.1443
     26 H3          1.1320    3.1784    0.0079 H         1 <0>         0.1392
     27 H4         -0.9267   -0.5551    0.0082 H         1 <0>         0.1332
     28 H5          1.9952   -4.6246   -0.0496 H         1 <0>         0.1287
     29 H6          3.3268   -6.6925   -0.0733 H         1 <0>         0.1356
     30 H7          6.9242   -4.3988   -0.0750 H         1 <0>         0.1230
     31 H8          5.6111   -2.3190   -0.0637 H         1 <0>         0.1491
     32 H9          5.3554   -7.8068   -0.0553 H         1 <0>         0.1214
     33 H10         7.1955   -5.9496    1.4580 H         1 <0>         0.1037
     34 H11         6.6125   -7.5856    1.9086 H         1 <0>         0.1207
     35 H12         9.1586   -7.2878    1.0503 H         1 <0>         0.1401
     36 H13         8.1904   -8.6715    0.4463 H         1 <0>         0.1380
     37 H14         8.6783   -6.0729   -0.8574 H         1 <0>         0.4314
     38 H15         6.6876   -7.8961   -1.9153 H         1 <0>         0.1387
     39 H16         6.7274   -6.1107   -1.9628 H         1 <0>         0.1372
     40 H17         2.7574    4.0213   -0.0036 H         1 <0>         0.4003
     41 H18         4.4368    4.0663   -0.0197 H         1 <0>         0.4073
     42 H19         8.8664   -7.5912   -1.4900 H         1 <0>         0.4349
@<TRIPOS>BOND
     1    1    6 ar
     2    1    2 ar
     3    1   25 1
     4    2    3 ar
     5    2   26 1
     6    3    4 ar
     7    3   22 1
     8    4   10 1
     9    4    5 ar
    10    5    6 ar
    11    5    7 1
    12    6   27 1
    13    7    8 1
    14    7    9 1
    15    9   10 2
    16    9   11 1
    17   11   16 ar
    18   11   12 ar
    19   12   13 ar
    20   12   28 1
    21   13   14 ar
    22   13   29 1
    23   14   15 ar
    24   14   17 1
    25   15   16 ar
    26   15   30 1
    27   16   31 1
    28   17   21 1
    29   17   18 1
    30   17   32 1
    31   18   19 1
    32   18   33 1
    33   18   34 1
    34   19   20 1
    35   19   35 1
    36   19   36 1
    37   20   21 1
    38   20   37 1
    39   20   42 1
    40   21   38 1
    41   21   39 1
    42   22   23 2
    43   22   24 am
    44   24   40 1
    45   24   41 1
@<TRIPOS>MOLECULE
CHEMBL1093845__1
   42    45     0     0     0
SMALL
USER_CHARGES

@<TRIPOS>ATOM
      1 C1         -0.0167    1.3774    0.0096 C.ar      1 <0>        -0.1038
      2 C2          1.1628    2.0989    0.0022 C.ar      1 <0>        -0.0825
      3 C3          2.3901    1.4411   -0.0130 C.ar      1 <0>        -0.0873
      4 C4          2.4210    0.0291   -0.0208 C.ar      1 <0>         0.1014
      5 C5          1.2101   -0.6854   -0.0131 C.ar      1 <0>         0.0462
      6 C6          0.0021   -0.0041    0.0020 C.ar      1 <0>        -0.0811
      7 N1          1.5541   -2.0239   -0.0235 N.pl3     1 <0>        -0.5911
      8 H1          0.9423   -2.7767   -0.0217 H         1 <0>         0.4254
      9 C7          2.9199   -2.0865   -0.0368 C.2       1 <0>         0.3077
     10 N2          3.4185   -0.8725   -0.0351 N.2       1 <0>        -0.4446
     11 C8          3.7148   -3.3333   -0.0503 C.ar      1 <0>        -0.0060
     12 C9          3.0740   -4.5730   -0.0559 C.ar      1 <0>        -0.0965
     13 C10         3.8215   -5.7325   -0.0689 C.ar      1 <0>        -0.0988
     14 C11         5.2035   -5.6681   -0.0761 C.ar      1 <0>        -0.0900
     15 C12         5.8450   -4.4422   -0.0701 C.ar      1 <0>        -0.1154
     16 C13         5.1092   -3.2753   -0.0634 C.ar      1 <0>        -0.0618
     17 C14         6.0137   -6.9387   -0.0898 C.3       1 <0>        -0.0596
     18 C15         7.0283   -6.9297   -1.2634 C.3       1 <0>        -0.1413
     19 C16         8.1326   -7.8758   -0.7296 C.3       1 <0>        -0.0091
     20 N3          8.2126   -7.5841    0.7176 N.4       1 <0>        -0.5144
     21 C17         6.9225   -7.0199    1.1548 C.3       1 <0>        -0.0097
     22 C18         3.6461    2.2117   -0.0213 C.2       1 <0>         0.5594
     23 O1          4.7151    1.6321   -0.0346 O.2       1 <0>        -0.5161
     24 N4          3.6101    3.5590   -0.0142 N.am      1 <0>        -0.8526
     25 H2         -0.9622    1.8990    0.0260 H         1 <0>         0.1442
     26 H3          1.1320    3.1784    0.0079 H         1 <0>         0.1391
     27 H4         -0.9267   -0.5551    0.0082 H         1 <0>         0.1331
     28 H5          1.9952   -4.6246   -0.0496 H         1 <0>         0.1284
     29 H6          3.3268   -6.6925   -0.0733 H         1 <0>         0.1347
     30 H7          6.9242   -4.3988   -0.0750 H         1 <0>         0.1284
     31 H8          5.6111   -2.3190   -0.0637 H         1 <0>         0.1492
     32 H9          5.3610   -7.8097   -0.1479 H         1 <0>         0.1171
     33 H10         6.5778   -7.3289   -2.1721 H         1 <0>         0.1209
     34 H11         7.4212   -5.9270   -1.4322 H         1 <0>         0.1038
     35 H12         7.8519   -8.9164   -0.8921 H         1 <0>         0.1360
     36 H13         9.0848   -7.6587   -1.2136 H         1 <0>         0.1391
     37 H14         8.4005   -8.4354    1.2256 H         1 <0>         0.4332
     38 H15         7.0748   -6.0229    1.5683 H         1 <0>         0.1363
     39 H16         6.4686   -7.6689    1.9036 H         1 <0>         0.1384
     40 H17         2.7574    4.0213   -0.0036 H         1 <0>         0.4002
     41 H18         4.4368    4.0663   -0.0197 H         1 <0>         0.4072
     42 H19         8.9504   -6.9176    0.8894 H         1 <0>         0.4324
@<TRIPOS>BOND
     1    1    6 ar
     2    1    2 ar
     3    1   25 1
     4    2    3 ar
     5    2   26 1
     6    3    4 ar
     7    3   22 1
     8    4   10 1
     9    4    5 ar
    10    5    6 ar
    11    5    7 1
    12    6   27 1
    13    7    8 1
    14    7    9 1
    15    9   10 2
    16    9   11 1
    17   11   16 ar
    18   11   12 ar
    19   12   13 ar
    20   12   28 1
    21   13   14 ar
    22   13   29 1
    23   14   15 ar
    24   14   17 1
    25   15   16 ar
    26   15   30 1
    27   16   31 1
    28   17   21 1
    29   17   18 1
    30   17   32 1
    31   18   19 1
    32   18   33 1
    33   18   34 1
    34   19   20 1
    35   19   35 1
    36   19   36 1
    37   20   21 1
    38   20   37 1
    39   20   42 1
    40   21   38 1
    41   21   39 1
    42   22   23 2
    43   22   24 am
    44   24   40 1
    45   24   41 1
@<TRIPOS>MOLECULE
CHEMBL1169488
   35    37     0     0     0
SMALL
USER_CHARGES

@<TRIPOS>ATOM
      1 C1         -0.0169    1.3940    0.0097 C.2       1 <0>        -0.0971
      2 C2          1.1565    2.0882    0.0022 C.2       1 <0>        -0.0813
      3 C3          2.3785    1.3917   -0.0132 C.2       1 <0>         0.1012
      4 C4          3.7045    1.8089   -0.0231 C.2       1 <0>        -0.2675
      5 C5          4.4998    0.6754   -0.0366 C.2       1 <0>         0.1222
      6 N1          3.7282   -0.3898   -0.0352 N.2       1 <0>        -0.3319
      7 N2          2.3896    0.0201   -0.0207 N.pl3     1 <0>        -0.2635
      8 C6          1.2022   -0.6790   -0.0135 C.2       1 <0>         0.0733
      9 C7          0.0021   -0.0041    0.0020 C.2       1 <0>        -0.0751
     10 C8          1.2166   -2.1484   -0.0215 C.2       1 <0>         0.5699
     11 O1          0.1691   -2.7671   -0.0151 O.2       1 <0>        -0.5290
     12 N3          2.3904   -2.8107   -0.0359 N.am      1 <0>        -0.8379
     13 C9          6.0067    0.6640   -0.0513 C.3       1 <0>        -0.0088
     14 C10         6.5337    1.8376    0.7769 C.3       1 <0>        -0.1097
     15 C11         8.0635    1.8262    0.7620 C.3       1 <0>        -0.1197
     16 C12         8.5605    1.9553   -0.6793 C.3       1 <0>        -0.1224
     17 C13         8.0335    0.7817   -1.5075 C.3       1 <0>        -0.1191
     18 C14         6.5036    0.7932   -1.4926 C.3       1 <0>        -0.1082
     19 H1         -0.9585    1.9226    0.0260 H         1 <0>         0.1531
     20 H2          1.1479    3.1681    0.0078 H         1 <0>         0.1553
     21 H3          4.0515    2.8316   -0.0208 H         1 <0>         0.1589
     22 H4         -0.9264   -0.5557    0.0079 H         1 <0>         0.1700
     23 H5          3.2255   -2.3174   -0.0409 H         1 <0>         0.4172
     24 H6          2.3999   -3.7806   -0.0412 H         1 <0>         0.4071
     25 H7          6.3672   -0.2722    0.3748 H         1 <0>         0.0886
     26 H8          6.1732    2.7739    0.3508 H         1 <0>         0.0699
     27 H9          6.1796    1.7456    1.8037 H         1 <0>         0.0663
     28 H10         8.4389    2.6622    1.3520 H         1 <0>         0.0662
     29 H11         8.4240    0.8899    1.1881 H         1 <0>         0.0636
     30 H12         8.2000    2.8915   -1.1054 H         1 <0>         0.0633
     31 H13         9.6504    1.9471   -0.6900 H         1 <0>         0.0631
     32 H14         8.3875    0.8737   -2.5343 H         1 <0>         0.0656
     33 H15         8.3940   -0.1545   -1.0814 H         1 <0>         0.0639
     34 H16         6.1282   -0.0429   -2.0826 H         1 <0>         0.0646
     35 H17         6.1431    1.7294   -1.9187 H         1 <0>         0.0680
@<TRIPOS>BOND
     1    1    9 1
     2    1    2 2
     3    1   19 1
     4    2    3 1
     5    2   20 1
     6    3    7 1
     7    3    4 2
     8    4    5 1
     9    4   21 1
    10    5    6 2
    11    5   13 1
    12    6    7 1
    13    7    8 1
    14    8    9 2
    15    8   10 1
    16    9   22 1
    17   10   11 2
    18   10   12 am
    19   12   23 1
    20   12   24 1
    21   13   18 1
    22   13   14 1
    23   13   25 1
    24   14   15 1
    25   14   26 1
    26   14   27 1
    27   15   16 1
    28   15   28 1
    29   15   29 1
    30   16   17 1
    31   16   30 1
    32   16   31 1
    33   17   18 1
    34   17   32 1
    35   17   33 1
    36   18   34 1
    37   18   35 1
@<TRIPOS>MOLECULE
CHEMBL202848
   53    58     0     0     0
SMALL
USER_CHARGES

@<TRIPOS>ATOM
      1 C1         -1.2469    1.1554   -0.1453 C.3       1 <0>         0.0704
      2 N1         -0.5790   -0.1464   -0.0711 N.am      1 <0>        -0.6049
      3 C2         -0.4440   -0.8280    1.2187 C.3       1 <0>         0.1689
      4 C3         -1.6425   -1.7125    1.4473 C.ar      1 <0>         0.1025
      5 C4         -1.5777   -3.0514    1.1098 C.ar      1 <0>        -0.1453
      6 C5         -2.6858   -3.8564    1.3242 C.ar      1 <0>        -0.0785
      7 C6         -3.8227   -3.2821    1.8724 C.ar      1 <0>        -0.1690
      8 C7         -3.8135   -1.9361    2.1846 C.ar      1 <0>         0.0954
      9 N2         -2.7390   -1.2015    1.9718 N.ar      1 <0>        -0.4749
     10 C8         -0.0887   -0.7170   -1.1894 C.2       1 <0>         0.5663
     11 O1          0.3700   -1.8422   -1.1468 O.2       1 <0>        -0.5310
     12 C9         -0.1087    0.0242   -2.4658 C.ar      1 <0>        -0.1623
     13 C10         0.0896    1.4104   -2.4749 C.ar      1 <0>        -0.0558
     14 C11         0.0731    2.1057   -3.6480 C.ar      1 <0>        -0.1426
     15 C12        -0.1415    1.4441   -4.8566 C.ar      1 <0>         0.1620
     16 C13        -0.3417    0.0534   -4.8580 C.ar      1 <0>        -0.1067
     17 C14        -0.3191   -0.6555   -3.6643 C.ar      1 <0>         0.0009
     18 C15        -0.5386   -0.3371   -6.2674 C.ar      1 <0>        -0.0868
     19 C16        -0.7774   -1.5434   -6.9032 C.ar      1 <0>        -0.0203
     20 C17        -0.9207   -1.5833   -8.2885 C.ar      1 <0>        -0.1752
     21 C18        -0.8222   -0.3977   -9.0359 C.ar      1 <0>         0.0148
     22 C19        -0.5872    0.7922   -8.4118 C.ar      1 <0>        -0.1290
     23 C20        -0.4424    0.8436   -7.0222 C.ar      1 <0>         0.1876
     24 N3         -0.2056    1.8939   -6.1595 N.pl3     1 <0>        -0.6029
     25 H1         -0.0995    2.8191   -6.4308 H         1 <0>         0.4230
     26 C21        -0.5256    1.9099   -9.4327 C.3       1 <0>        -0.0765
     27 C22        -0.3166    1.2041  -10.7893 C.3       1 <0>        -0.1199
     28 C23        -0.9396   -0.1843  -10.5312 C.3       1 <0>        -0.0869
     29 C24        -1.1641   -2.9806   -8.6887 C.2       1 <0>         0.5651
     30 O2         -1.3322   -3.3561   -9.8328 O.2       1 <0>        -0.5251
     31 N4         -1.1734   -3.7809   -7.6087 N.am      1 <0>        -0.7249
     32 C25        -0.9353   -2.9615   -6.4148 C.3       1 <0>         0.1390
     33 H2         -0.5288    1.9452    0.0751 H         1 <0>         0.0622
     34 H3         -1.6502    1.3002   -1.1475 H         1 <0>         0.0796
     35 H4         -2.0586    1.1892    0.5814 H         1 <0>         0.0796
     36 H5          0.4608   -1.4358    1.2155 H         1 <0>         0.1015
     37 H6         -0.3815   -0.0876    2.0161 H         1 <0>         0.0982
     38 H7         -0.6754   -3.4650    0.6843 H         1 <0>         0.1406
     39 H8         -2.6642   -4.9059    1.0699 H         1 <0>         0.1350
     40 H9         -4.7043   -3.8792    2.0527 H         1 <0>         0.1351
     41 H10        -4.6950   -1.4812    2.6118 H         1 <0>         0.1563
     42 H11         0.2565    1.9334   -1.5449 H         1 <0>         0.1426
     43 H12         0.2269    3.1747   -3.6409 H         1 <0>         0.1336
     44 H13        -0.4680   -1.7252   -3.6641 H         1 <0>         0.1353
     45 H14        -1.4607    2.4700   -9.4375 H         1 <0>         0.0820
     46 H15         0.3125    2.5729   -9.2179 H         1 <0>         0.0737
     47 H16        -0.8472    1.7266  -11.5854 H         1 <0>         0.0825
     48 H17         0.7445    1.1169  -11.0230 H         1 <0>         0.0763
     49 H18        -0.3848   -0.9538  -11.0681 H         1 <0>         0.0882
     50 H19        -1.9868   -0.1913  -10.8335 H         1 <0>         0.0900
     51 H20        -1.3139   -4.7406   -7.6172 H         1 <0>         0.4267
     52 H21        -0.0253   -3.2881   -5.9114 H         1 <0>         0.1026
     53 H22        -1.7854   -3.0318   -5.7362 H         1 <0>         0.1008
@<TRIPOS>BOND
     1    1    2 1
     2    1   33 1
     3    1   34 1
     4    1   35 1
     5    2    3 1
     6    2   10 am
     7    3    4 1
     8    3   36 1
     9    3   37 1
    10    4    9 ar
    11    4    5 ar
    12    5    6 ar
    13    5   38 1
    14    6    7 ar
    15    6   39 1
    16    7    8 ar
    17    7   40 1
    18    8    9 ar
    19    8   41 1
    20   10   11 2
    21   10   12 1
    22   12   17 ar
    23   12   13 ar
    24   13   14 ar
    25   13   42 1
    26   14   15 ar
    27   14   43 1
    28   15   24 1
    29   15   16 ar
    30   16   17 ar
    31   16   18 1
    32   17   44 1
    33   18   23 ar
    34   18   19 ar
    35   19   32 1
    36   19   20 ar
    37   20   21 ar
    38   20   29 1
    39   21   28 1
    40   21   22 ar
    41   22   23 ar
    42   22   26 1
    43   23   24 1
    44   24   25 1
    45   26   27 1
    46   26   45 1
    47   26   46 1
    48   27   28 1
    49   27   47 1
    50   27   48 1
    51   28   49 1
    52   28   50 1
    53   29   30 2
    54   29   31 am
    55   31   32 1
    56   31   51 1
    57   32   52 1
    58   32   53 1
@<TRIPOS>MOLECULE
CHEMBL372989
   76    81     0     0     0
SMALL
USER_CHARGES

@<TRIPOS>ATOM
      1 C1          2.5684    3.0147   -1.2950 C.3       1 <0>         0.0252
      2 O1          2.4771    1.6098   -1.0501 O.3       1 <0>        -0.3051
      3 C2          2.8006    0.7815   -2.0790 C.ar      1 <0>         0.1080
      4 C3          3.2018    1.3062   -3.2935 C.ar      1 <0>        -0.1744
      5 C4          3.5376    0.4683   -4.3503 C.ar      1 <0>        -0.0620
      6 C5          3.4756   -0.8975   -4.1830 C.ar      1 <0>        -0.0991
      7 C6          3.0664   -1.4294   -2.9675 C.ar      1 <0>        -0.1673
      8 C7          2.7349   -0.5986   -1.9128 C.ar      1 <0>         0.1028
      9 O2          2.3423   -1.1268   -0.7227 O.3       1 <0>        -0.3048
     10 C8          2.2995   -2.5520   -0.6280 C.3       1 <0>         0.0252
     11 C9          3.8539   -1.8623   -5.2790 C.3       1 <0>         0.1513
     12 N1          3.9987   -1.1383   -6.5463 N.am      1 <0>        -0.6129
     13 C10         4.7371    0.1351   -6.5166 C.3       1 <0>         0.1115
     14 C11         3.9504    1.1143   -5.6469 C.3       1 <0>        -0.0942
     15 C12         3.4773   -1.6196   -7.6921 C.2       1 <0>         0.5261
     16 O3          3.6115   -1.0008   -8.7265 O.2       1 <0>        -0.5312
     17 C13         2.7274   -2.9268   -7.6880 C.3       1 <0>        -0.1071
     18 C14         3.6537   -4.0445   -7.2035 C.3       1 <0>        -0.1380
     19 C15         2.8784   -5.3652   -7.1676 C.3       1 <0>         0.0984
     20 N2          2.2874   -5.6028   -8.4916 N.am      1 <0>        -0.6077
     21 C16         1.4522   -4.5531   -9.0911 C.3       1 <0>         0.1113
     22 C17         2.2435   -3.2415   -9.1054 C.3       1 <0>        -0.1128
     23 C18         2.5077   -6.7613   -9.1441 C.2       1 <0>         0.5625
     24 O4          1.9579   -6.9742  -10.2071 O.2       1 <0>        -0.5278
     25 C19         3.4179   -7.7733   -8.5669 C.ar      1 <0>        -0.1231
     26 C20         3.2564   -8.1881   -7.2438 C.ar      1 <0>        -0.0920
     27 C21         4.1087   -9.1330   -6.7115 C.ar      1 <0>        -0.1195
     28 C22         5.1226   -9.6691   -7.4859 C.ar      1 <0>        -0.0823
     29 C23         5.2881   -9.2624   -8.7977 C.ar      1 <0>        -0.0769
     30 C24         4.4388   -8.3222   -9.3441 C.ar      1 <0>        -0.0536
     31 C25         6.3953   -9.8513   -9.6334 C.3       1 <0>        -0.0188
     32 C26         5.8895  -11.0810  -10.3428 C.2       1 <0>         0.1370
     33 C27         6.7834  -11.8408  -11.2168 C.ar      1 <0>        -0.0594
     34 C28         8.1117  -11.4621  -11.4210 C.ar      1 <0>        -0.0979
     35 C29         8.9078  -12.2053  -12.2471 C.ar      1 <0>        -0.0874
     36 C30         8.4139  -13.3341  -12.8884 C.ar      1 <0>        -0.1110
     37 C31         7.1075  -13.7314  -12.7061 C.ar      1 <0>        -0.0545
     38 C32         6.2772  -12.9893  -11.8672 C.ar      1 <0>        -0.1256
     39 C33         4.8767  -13.3609  -11.6311 C.2       1 <0>         0.5284
     40 N3          4.1323  -12.5948  -10.8065 N.am      1 <0>        -0.5330
     41 N4          4.6607  -11.4693  -10.1739 N.2       1 <0>        -0.2180
     42 O5          4.3956  -14.3419  -12.1696 O.2       1 <0>        -0.5211
     43 H1          3.5927    3.2705   -1.5660 H         1 <0>         0.0559
     44 H2          1.8983    3.2856   -2.1109 H         1 <0>         0.0556
     45 H3          2.2838    3.5597   -0.3950 H         1 <0>         0.1025
     46 H4          3.2545    2.3771   -3.4223 H         1 <0>         0.1363
     47 H5          3.0104   -2.5008   -2.8435 H         1 <0>         0.1378
     48 H6          1.9714   -2.8401    0.3707 H         1 <0>         0.1019
     49 H7          1.6012   -2.9445   -1.3672 H         1 <0>         0.0554
     50 H8          3.2933   -2.9586   -0.8153 H         1 <0>         0.0558
     51 H9          4.7982   -2.3451   -5.0272 H         1 <0>         0.0846
     52 H10         3.0761   -2.6191   -5.3805 H         1 <0>         0.0993
     53 H11         5.7278   -0.0229   -6.0904 H         1 <0>         0.0759
     54 H12         4.8289    0.5318   -7.5277 H         1 <0>         0.1000
     55 H13         3.0598    1.4369   -6.1861 H         1 <0>         0.0817
     56 H14         4.5729    1.9830   -5.4323 H         1 <0>         0.0873
     57 H15         1.8695   -2.8512   -7.0199 H         1 <0>         0.1009
     58 H16         4.4992   -4.1374   -7.8850 H         1 <0>         0.0778
     59 H17         4.0164   -3.8083   -6.2031 H         1 <0>         0.0887
     60 H18         3.5573   -6.1809   -6.9188 H         1 <0>         0.1021
     61 H19         2.0875   -5.3045   -6.4200 H         1 <0>         0.0748
     62 H20         1.1901   -4.8329  -10.1115 H         1 <0>         0.0991
     63 H21         0.5450   -4.4261   -8.5004 H         1 <0>         0.0715
     64 H22         1.6026   -2.4337   -9.4587 H         1 <0>         0.0861
     65 H23         3.1023   -3.3419   -9.7691 H         1 <0>         0.0767
     66 H24         2.4659   -7.7699   -6.6382 H         1 <0>         0.1282
     67 H25         3.9848   -9.4548   -5.6881 H         1 <0>         0.1298
     68 H26         5.7877  -10.4081   -7.0641 H         1 <0>         0.1259
     69 H27         4.5665   -8.0086  -10.3696 H         1 <0>         0.1272
     70 H28         6.7251   -9.1175  -10.3688 H         1 <0>         0.1073
     71 H29         7.2321  -10.1218   -8.9894 H         1 <0>         0.1086
     72 H30         8.5080  -10.5862  -10.9291 H         1 <0>         0.1416
     73 H31         9.9349  -11.9105  -12.4036 H         1 <0>         0.1365
     74 H32         9.0608  -13.9060  -13.5370 H         1 <0>         0.1374
     75 H33         6.7301  -14.6102  -13.2079 H         1 <0>         0.1435
     76 H34         3.2062  -12.8352  -10.6465 H         1 <0>         0.4369
@<TRIPOS>BOND
     1    1    2 1
     2    1   43 1
     3    1   44 1
     4    1   45 1
     5    2    3 1
     6    3    8 ar
     7    3    4 ar
     8    4    5 ar
     9    4   46 1
    10    5   14 1
    11    5    6 ar
    12    6    7 ar
    13    6   11 1
    14    7    8 ar
    15    7   47 1
    16    8    9 1
    17    9   10 1
    18   10   48 1
    19   10   49 1
    20   10   50 1
    21   11   12 1
    22   11   51 1
    23   11   52 1
    24   12   13 1
    25   12   15 am
    26   13   14 1
    27   13   53 1
    28   13   54 1
    29   14   55 1
    30   14   56 1
    31   15   16 2
    32   15   17 1
    33   17   22 1
    34   17   18 1
    35   17   57 1
    36   18   19 1
    37   18   58 1
    38   18   59 1
    39   19   20 1
    40   19   60 1
    41   19   61 1
    42   20   21 1
    43   20   23 am
    44   21   22 1
    45   21   62 1
    46   21   63 1
    47   22   64 1
    48   22   65 1
    49   23   24 2
    50   23   25 1
    51   25   30 ar
    52   25   26 ar
    53   26   27 ar
    54   26   66 1
    55   27   28 ar
    56   27   67 1
    57   28   29 ar
    58   28   68 1
    59   29   30 ar
    60   29   31 1
    61   30   69 1
    62   31   32 1
    63   31   70 1
    64   31   71 1
    65   32   41 2
    66   32   33 1
    67   33   38 ar
    68   33   34 ar
    69   34   35 ar
    70   34   72 1
    71   35   36 ar
    72   35   73 1
    73   36   37 ar
    74   36   74 1
    75   37   38 ar
    76   37   75 1
    77   38   39 1
    78   39   40 am
    79   39   42 2
    80   40   41 1
    81   40   76 1
@<TRIPOS>MOLECULE
CHEMBL1094951
   32    34     0     0     0
SMALL
USER_CHARGES

@<TRIPOS>ATOM
      1 C1         -0.0167    1.3781    0.0096 C.ar      1 <0>        -0.1055
      2 C2          1.1709    2.0855    0.0021 C.ar      1 <0>        -0.1214
      3 C3          2.3773    1.4107   -0.0130 C.ar      1 <0>        -0.0754
      4 C4          2.3960    0.0285   -0.0201 C.ar      1 <0>        -0.1176
      5 C5          1.2084   -0.6789   -0.0117 C.ar      1 <0>        -0.0997
      6 C6          0.0021   -0.0041    0.0020 C.ar      1 <0>        -0.1255
      7 C7          3.7112   -0.7071   -0.0376 C.3       1 <0>         0.1650
      8 N1          4.1518   -0.9524    1.3379 N.pl3     1 <0>        -0.3188
      9 C8          4.4648   -2.1527    1.8419 C.2       1 <0>         0.0877
     10 C9          4.8320   -1.9747    3.1646 C.ar      1 <0>        -0.2223
     11 C10         5.2549   -2.8278    4.2024 C.ar      1 <0>        -0.0005
     12 C11         5.5495   -2.3278    5.4305 C.ar      1 <0>        -0.1800
     13 C12         5.4533   -0.9748    5.7305 C.ar      1 <0>        -0.0259
     14 C13         5.0466   -0.0522    4.7796 C.ar      1 <0>        -0.1271
     15 C14         4.7150   -0.5324    3.4340 C.ar      1 <0>         0.1324
     16 N2          4.3136    0.0343    2.3176 N.2       1 <0>        -0.2632
     17 C15         4.9500    1.3780    5.1126 C.2       1 <0>         0.5615
     18 O1          4.5916    2.1764    4.2677 O.2       1 <0>        -0.5246
     19 N3          5.2587    1.8033    6.3537 N.am      1 <0>        -0.8559
     20 H1         -0.9591    1.9053    0.0259 H         1 <0>         0.1244
     21 H2          1.1563    3.1654    0.0076 H         1 <0>         0.1259
     22 H3          3.3051    1.9634   -0.0196 H         1 <0>         0.1261
     23 H4          1.2231   -1.7588   -0.0176 H         1 <0>         0.1210
     24 H5         -0.9258   -0.5567    0.0082 H         1 <0>         0.1246
     25 H6          3.5884   -1.6586   -0.5549 H         1 <0>         0.1120
     26 H7          4.4573   -0.1052   -0.5563 H         1 <0>         0.1038
     27 H8          4.4355   -3.0927    1.3110 H         1 <0>         0.1882
     28 H9          5.3453   -3.8885    4.0204 H         1 <0>         0.1276
     29 H10         5.8710   -3.0091    6.2044 H         1 <0>         0.1289
     30 H11         5.7001   -0.6348    6.7255 H         1 <0>         0.1308
     31 H12         5.5445    1.1667    7.0275 H         1 <0>         0.3984
     32 H13         5.1951    2.7460    6.5732 H         1 <0>         0.4049
@<TRIPOS>BOND
     1    1    6 ar
     2    1    2 ar
     3    1   20 1
     4    2    3 ar
     5    2   21 1
     6    3    4 ar
     7    3   22 1
     8    4    5 ar
     9    4    7 1
    10    5    6 ar
    11    5   23 1
    12    6   24 1
    13    7    8 1
    14    7   25 1
    15    7   26 1
    16    8   16 1
    17    8    9 1
    18    9   10 2
    19    9   27 1
    20   10   15 ar
    21   10   11 ar
    22   11   12 ar
    23   11   28 1
    24   12   13 ar
    25   12   29 1
    26   13   14 ar
    27   13   30 1
    28   14   15 ar
    29   14   17 1
    30   15   16 2
    31   17   18 2
    32   17   19 am
    33   19   31 1
    34   19   32 1
@<TRIPOS>MOLECULE
CHEMBL203967
   60    64     0     0     0
SMALL
USER_CHARGES

@<TRIPOS>ATOM
      1 C1          4.9374   -0.1434   -1.5071 C.ar      1 <0>        -0.0861
      2 C2          6.1601   -0.4374   -2.0969 C.ar      1 <0>        -0.1067
      3 C3          6.5139   -1.7405   -2.3701 C.ar      1 <0>        -0.0531
      4 C4          5.6314   -2.7709   -2.0486 C.ar      1 <0>        -0.1241
      5 C5          4.3882   -2.4675   -1.4480 C.ar      1 <0>        -0.0644
      6 C6          4.0568   -1.1373   -1.1833 C.ar      1 <0>        -0.0989
      7 C7          3.4818   -3.5687   -1.1219 C.2       1 <0>         0.1344
      8 N1          3.8266   -4.7940   -1.3844 N.2       1 <0>        -0.2250
      9 N2          5.0463   -5.1233   -1.9763 N.am      1 <0>        -0.5338
     10 C8          5.9492   -4.1793   -2.3146 C.2       1 <0>         0.5281
     11 O1          7.0079   -4.4898   -2.8308 O.2       1 <0>        -0.5132
     12 C9          2.1483   -3.2822   -0.4810 C.3       1 <0>        -0.0174
     13 C10         1.4131   -4.5773   -0.2505 C.ar      1 <0>        -0.0860
     14 C11         0.5785   -5.0814   -1.2336 C.ar      1 <0>        -0.0412
     15 C12        -0.1002   -6.2683   -1.0320 C.ar      1 <0>        -0.1509
     16 C13         0.0511   -6.9613    0.1555 C.ar      1 <0>         0.1528
     17 C14         0.8930   -6.4570    1.1515 C.ar      1 <0>        -0.1803
     18 C15         1.5782   -5.2591    0.9362 C.ar      1 <0>        -0.0475
     19 C16         1.0605   -7.1896    2.4229 C.2       1 <0>         0.5660
     20 O2          1.2431   -8.3915    2.4123 O.2       1 <0>        -0.4987
     21 N3          1.0108   -6.5258    3.5948 N.am      1 <0>        -0.6232
     22 C17         0.6584   -5.0916    3.5862 C.3       1 <0>         0.0888
     23 C18        -0.2974   -4.7494    4.7435 C.3       1 <0>        -0.1572
     24 C19        -1.3080   -5.8629    4.9076 C.3       1 <0>        -0.0088
     25 N4         -0.8224   -6.8114    5.9074 N.4       1 <0>        -0.3634
     26 C20         0.0019   -7.8407    5.4008 C.3       1 <0>        -0.0458
     27 C21         1.2991   -7.2460    4.8180 C.3       1 <0>         0.0997
     28 C22        -1.9831   -7.4279    6.5637 C.3       1 <0>         0.0191
     29 C23        -1.5048   -8.3332    7.7007 C.3       1 <0>        -0.2142
     30 C24        -1.7947   -9.8307    7.5809 C.3       1 <0>        -0.1679
     31 C25        -2.5724   -8.9790    8.5862 C.3       1 <0>        -0.1479
     32 F1         -0.6128   -8.1213    0.3526 F         1 <0>        -0.1238
     33 H1          4.6809    0.8846   -1.2973 H         1 <0>         0.1380
     34 H2          6.8405    0.3640   -2.3442 H         1 <0>         0.1398
     35 H3          7.4659   -1.9619   -2.8295 H         1 <0>         0.1452
     36 H4          3.1092   -0.8949   -0.7254 H         1 <0>         0.1407
     37 H5          2.3044   -2.7782    0.4728 H         1 <0>         0.1088
     38 H6          1.5594   -2.6421   -1.1380 H         1 <0>         0.1134
     39 H7          0.4570   -4.5442   -2.1626 H         1 <0>         0.1427
     40 H8         -0.7500   -6.6553   -1.8029 H         1 <0>         0.1483
     41 H9          2.2329   -4.8657    1.6997 H         1 <0>         0.1374
     42 H10         1.5679   -4.4992    3.6864 H         1 <0>         0.0912
     43 H11         0.1761   -4.8474    2.6398 H         1 <0>         0.1078
     44 H12         0.2733   -4.6377    5.6654 H         1 <0>         0.0920
     45 H13        -0.8168   -3.8169    4.5222 H         1 <0>         0.1282
     46 H14        -2.2601   -5.4450    5.2347 H         1 <0>         0.1380
     47 H15        -1.4429   -6.3753    3.9551 H         1 <0>         0.1291
     48 H16         0.2503   -8.5331    6.2051 H         1 <0>         0.1478
     49 H17        -0.5320   -8.3780    4.6170 H         1 <0>         0.1318
     50 H18         1.9997   -8.0537    4.6063 H         1 <0>         0.1278
     51 H19         1.7422   -6.5643    5.5439 H         1 <0>         0.1013
     52 H20        -2.6289   -6.6481    6.9673 H         1 <0>         0.1349
     53 H21        -2.5392   -8.0202    5.8370 H         1 <0>         0.1292
     54 H22        -0.5689   -8.0377    8.1749 H         1 <0>         0.1257
     55 H23        -2.3261  -10.1710    6.6921 H         1 <0>         0.1062
     56 H24        -1.0493  -10.5208    7.9762 H         1 <0>         0.1110
     57 H25        -2.3387   -9.1087    9.6429 H         1 <0>         0.1126
     58 H26        -3.6155   -8.7589    8.3587 H         1 <0>         0.1075
     59 H27        -0.3016   -6.3005    6.6044 H         1 <0>         0.4169
     60 H28         5.2506   -6.0557   -2.1492 H         1 <0>         0.4375
@<TRIPOS>BOND
     1    1    6 ar
     2    1    2 ar
     3    1   33 1
     4    2    3 ar
     5    2   34 1
     6    3    4 ar
     7    3   35 1
     8    4   10 1
     9    4    5 ar
    10    5    6 ar
    11    5    7 1
    12    6   36 1
    13    7    8 2
    14    7   12 1
    15    8    9 1
    16    9   10 am
    17    9   60 1
    18   10   11 2
    19   12   13 1
    20   12   37 1
    21   12   38 1
    22   13   18 ar
    23   13   14 ar
    24   14   15 ar
    25   14   39 1
    26   15   16 ar
    27   15   40 1
    28   16   17 ar
    29   16   32 1
    30   17   18 ar
    31   17   19 1
    32   18   41 1
    33   19   20 2
    34   19   21 am
    35   21   27 1
    36   21   22 1
    37   22   23 1
    38   22   42 1
    39   22   43 1
    40   23   24 1
    41   23   44 1
    42   23   45 1
    43   24   25 1
    44   24   46 1
    45   24   47 1
    46   25   26 1
    47   25   28 1
    48   25   59 1
    49   26   27 1
    50   26   48 1
    51   26   49 1
    52   27   50 1
    53   27   51 1
    54   28   29 1
    55   28   52 1
    56   28   53 1
    57   29   31 1
    58   29   30 1
    59   29   54 1
    60   30   31 1
    61   30   55 1
    62   30   56 1
    63   31   57 1
    64   31   58 1
@<TRIPOS>MOLECULE
CHEMBL245989
   38    42     0     0     0
SMALL
USER_CHARGES

@<TRIPOS>ATOM
      1 C1         -0.0170    1.3989    0.0097 C.ar      1 <0>        -0.0326
      2 C2          1.1473    2.1080    0.0024 C.ar      1 <0>        -0.1505
      3 C3          2.3759    1.4479   -0.0131 C.ar      1 <0>         0.1795
      4 C4          2.4077    0.0410   -0.0219 C.ar      1 <0>        -0.1249
      5 C5          1.2229   -0.6830   -0.0138 C.ar      1 <0>         0.0225
      6 C6          0.0021   -0.0041    0.0020 C.ar      1 <0>        -0.1992
      7 C7         -1.2588   -0.7572    0.0116 C.2       1 <0>         0.3938
      8 O1         -1.2409   -1.9700    0.0049 O.2       1 <0>        -0.4192
      9 C8         -2.5749   -0.0232    0.0298 C.3       1 <0>        -0.1395
     10 Br1        -4.0500   -1.3228    0.0388 Br        1 <0>        -0.1143
     11 C9          3.8294   -0.3431   -0.0390 C.ar      1 <0>        -0.0276
     12 C10         4.5008   -1.5651   -0.0544 C.ar      1 <0>        -0.0850
     13 C11         5.9078   -1.5833   -0.0689 C.ar      1 <0>        -0.1511
     14 C12         6.6262   -0.3896   -0.0675 C.ar      1 <0>         0.0099
     15 C13         5.9591    0.8201   -0.0521 C.ar      1 <0>        -0.0969
     16 C14         4.5647    0.8573   -0.0381 C.ar      1 <0>         0.1765
     17 N1          3.6738    1.9122   -0.0224 N.pl3     1 <0>        -0.6016
     18 H1          3.9260    2.8488   -0.0190 H         1 <0>         0.4266
     19 C15         6.9602    1.9567   -0.0532 C.3       1 <0>        -0.0811
     20 C16         8.2988    1.3167    0.3708 C.3       1 <0>        -0.1193
     21 C17         8.1217   -0.1481   -0.0806 C.3       1 <0>        -0.0880
     22 C18         6.2939   -3.0083   -0.0833 C.2       1 <0>         0.5816
     23 O2          7.4312   -3.4349   -0.0979 O.2       1 <0>        -0.4597
     24 N2          5.1750   -3.7551   -0.0771 N.am      1 <0>        -0.6802
     25 C19         4.0767   -2.9783   -0.0600 C.2       1 <0>         0.5775
     26 O3          2.9282   -3.3741   -0.0501 O.2       1 <0>        -0.4507
     27 H2         -0.9620    1.9215    0.0261 H         1 <0>         0.1417
     28 H3          1.1182    3.1876    0.0083 H         1 <0>         0.1375
     29 H4          1.2450   -1.7628   -0.0202 H         1 <0>         0.1540
     30 H5         -2.6322    0.5977    0.9238 H         1 <0>         0.1332
     31 H6         -2.6515    0.6073   -0.8560 H         1 <0>         0.1332
     32 H7          7.0453    2.3848   -1.0520 H         1 <0>         0.0890
     33 H8          6.6635    2.7227    0.6633 H         1 <0>         0.0798
     34 H9          9.1343    1.7845   -0.1500 H         1 <0>         0.0865
     35 H10         8.4318    1.3761    1.4510 H         1 <0>         0.0791
     36 H11         8.6196   -0.8216    0.6170 H         1 <0>         0.0917
     37 H12         8.5179   -0.2843   -1.0869 H         1 <0>         0.0953
     38 H13         5.1618   -4.7250   -0.0838 H         1 <0>         0.4323
@<TRIPOS>BOND
     1    1    6 ar
     2    1    2 ar
     3    1   27 1
     4    2    3 ar
     5    2   28 1
     6    3   17 1
     7    3    4 ar
     8    4    5 ar
     9    4   11 1
    10    5    6 ar
    11    5   29 1
    12    6    7 1
    13    7    8 2
    14    7    9 1
    15    9   10 1
    16    9   30 1
    17    9   31 1
    18   11   16 ar
    19   11   12 ar
    20   12   25 1
    21   12   13 ar
    22   13   14 ar
    23   13   22 1
    24   14   21 1
    25   14   15 ar
    26   15   16 ar
    27   15   19 1
    28   16   17 1
    29   17   18 1
    30   19   20 1
    31   19   32 1
    32   19   33 1
    33   20   21 1
    34   20   34 1
    35   20   35 1
    36   21   36 1
    37   21   37 1
    38   22   23 2
    39   22   24 am
    40   24   25 am
    41   24   38 1
    42   25   26 2
@<TRIPOS>MOLECULE
CHEMBL611322
   47    50     0     0     0
SMALL
USER_CHARGES

@<TRIPOS>ATOM
      1 C1         -0.0166    1.3760    0.0096 C.ar      1 <0>        -0.1125
      2 C2          1.1662    2.0868    0.0021 C.ar      1 <0>        -0.0904
      3 C3          2.3967    1.4340   -0.0291 C.ar      1 <0>        -0.0811
      4 C4          2.4201    0.0605   -0.0499 C.ar      1 <0>        -0.0761
      5 C5          1.2266   -0.6678   -0.0130 C.ar      1 <0>        -0.1227
      6 C6          0.0021   -0.0041    0.0020 C.ar      1 <0>        -0.0505
      7 C7          1.2842   -2.1436    0.0500 C.2       1 <0>         0.5582
      8 O1          0.2876   -2.8040   -0.1694 O.2       1 <0>        -0.5182
      9 N1          2.4471   -2.7525    0.3513 N.am      1 <0>        -0.7295
     10 C8          3.6229   -1.9689    0.7327 C.3       1 <0>         0.1254
     11 C9          3.7168   -0.7072   -0.1204 C.3       1 <0>         0.1700
     12 N2          4.7906    0.1591    0.3818 N.am      1 <0>        -0.5783
     13 C10         4.9172    1.4937   -0.2120 C.3       1 <0>         0.0990
     14 C11         3.6334    2.2836   -0.0343 C.3       1 <0>        -0.0978
     15 C12         5.6281   -0.2566    1.3525 C.2       1 <0>         0.5073
     16 O2          5.5025   -1.3652    1.8280 O.2       1 <0>        -0.5221
     17 C13         6.7206    0.6560    1.8469 C.3       1 <0>        -0.0323
     18 N3          7.4897   -0.0250    2.8970 N.4       1 <0>        -0.3691
     19 C14         6.6226   -0.2698    4.0557 C.3       1 <0>        -0.0192
     20 C15         7.3960   -1.0507    5.1204 C.3       1 <0>        -0.1417
     21 C16         8.6166   -0.2357    5.5574 C.3       1 <0>        -0.1403
     22 C17         9.4756    0.0772    4.3288 C.3       1 <0>        -0.1451
     23 C18         8.6252    0.8164    3.2935 C.3       1 <0>        -0.0068
     24 H1         -0.9601    1.9013    0.0260 H         1 <0>         0.1394
     25 H2          1.1376    3.1663    0.0204 H         1 <0>         0.1333
     26 H3         -0.9221   -0.5629    0.0080 H         1 <0>         0.1447
     27 H4          2.5058   -3.7200    0.3155 H         1 <0>         0.4135
     28 H5          3.5450   -1.6893    1.7833 H         1 <0>         0.0826
     29 H6          4.5201   -2.5705    0.5874 H         1 <0>         0.1088
     30 H7          3.9215   -0.9818   -1.1552 H         1 <0>         0.1091
     31 H8          5.7361    2.0259    0.2720 H         1 <0>         0.0943
     32 H9          5.1334    1.3944   -1.2758 H         1 <0>         0.0954
     33 H10         3.5550    3.0075   -0.8454 H         1 <0>         0.1023
     34 H11         3.6865    2.8268    0.9092 H         1 <0>         0.0864
     35 H12         7.3827    0.9116    1.0196 H         1 <0>         0.1621
     36 H13         6.2782    1.5658    2.2527 H         1 <0>         0.1597
     37 H14         6.2947    0.6831    4.4713 H         1 <0>         0.1241
     38 H15         5.7527   -0.8472    3.7425 H         1 <0>         0.1462
     39 H16         6.7510   -1.2299    5.9807 H         1 <0>         0.1117
     40 H17         7.7241   -2.0039    4.7060 H         1 <0>         0.0890
     41 H18         8.2871    0.6954    6.0185 H         1 <0>         0.0815
     42 H19         9.2018   -0.8117    6.2742 H         1 <0>         0.0948
     43 H20        10.3171    0.7043    4.6233 H         1 <0>         0.1143
     44 H21         9.8470   -0.8526    3.8980 H         1 <0>         0.0890
     45 H22         9.2338    1.0409    2.4175 H         1 <0>         0.1318
     46 H23         8.2546    1.7461    3.7253 H         1 <0>         0.1305
     47 H24         7.8323   -0.9059    2.5438 H         1 <0>         0.4295
@<TRIPOS>BOND
     1    1    6 ar
     2    1    2 ar
     3    1   24 1
     4    2    3 ar
     5    2   25 1
     6    3   14 1
     7    3    4 ar
     8    4   11 1
     9    4    5 ar
    10    5    6 ar
    11    5    7 1
    12    6   26 1
    13    7    8 2
    14    7    9 am
    15    9   10 1
    16    9   27 1
    17   10   11 1
    18   10   28 1
    19   10   29 1
    20   11   12 1
    21   11   30 1
    22   12   13 1
    23   12   15 am
    24   13   14 1
    25   13   31 1
    26   13   32 1
    27   14   33 1
    28   14   34 1
    29   15   16 2
    30   15   17 1
    31   17   18 1
    32   17   35 1
    33   17   36 1
    34   18   23 1
    35   18   19 1
    36   18   47 1
    37   19   20 1
    38   19   37 1
    39   19   38 1
    40   20   21 1
    41   20   39 1
    42   20   40 1
    43   21   22 1
    44   21   41 1
    45   21   42 1
    46   22   23 1
    47   22   43 1
    48   22   44 1
    49   23   45 1
    50   23   46 1
@<TRIPOS>MOLECULE
CHEMBL611322__1
   47    50     0     0     0
SMALL
USER_CHARGES

@<TRIPOS>ATOM
      1 C1         -0.0166    1.3760    0.0096 C.ar      1 <0>        -0.1125
      2 C2          1.1662    2.0868    0.0021 C.ar      1 <0>        -0.0903
      3 C3          2.3970    1.4338    0.0028 C.ar      1 <0>        -0.0811
      4 C4          2.4207    0.0601    0.0084 C.ar      1 <0>        -0.0763
      5 C5          1.2266   -0.6678   -0.0135 C.ar      1 <0>        -0.1228
      6 C6          0.0021   -0.0041    0.0020 C.ar      1 <0>        -0.0505
      7 C7          1.2829   -2.1428   -0.0935 C.2       1 <0>         0.5582
      8 O1          0.2903   -2.8056    0.1369 O.2       1 <0>        -0.5183
      9 N1          2.4397   -2.7483   -0.4236 N.am      1 <0>        -0.7295
     10 C8          3.6080   -1.9605   -0.8189 C.3       1 <0>         0.1253
     11 C9          3.7184   -0.7081    0.0458 C.3       1 <0>         0.1701
     12 N2          4.7825    0.1637   -0.4675 N.am      1 <0>        -0.5784
     13 C10         4.9205    1.4919    0.1382 C.3       1 <0>         0.0992
     14 C11         3.6336    2.2834   -0.0064 C.3       1 <0>        -0.0979
     15 C12         5.6018   -0.2418   -1.4578 C.2       1 <0>         0.5073
     16 O2          5.4675   -1.3456   -1.9422 O.2       1 <0>        -0.5221
     17 C13         6.6848    0.6762   -1.9632 C.3       1 <0>        -0.0322
     18 N3          7.4342    0.0062   -3.0344 N.4       1 <0>        -0.3695
     19 C14         8.1302   -1.1635   -2.4848 C.3       1 <0>        -0.0190
     20 C15         8.8466   -1.9113   -3.6113 C.3       1 <0>        -0.1419
     21 C16         9.8622   -0.9753   -4.2728 C.3       1 <0>        -0.1402
     22 C17         9.1362    0.2756   -4.7765 C.3       1 <0>        -0.1453
     23 C18         8.4091    0.9424   -3.6068 C.3       1 <0>        -0.0067
     24 H1         -0.9601    1.9013    0.0260 H         1 <0>         0.1394
     25 H2          1.1374    3.1664   -0.0047 H         1 <0>         0.1334
     26 H3         -0.9221   -0.5629    0.0077 H         1 <0>         0.1447
     27 H4          2.4992   -3.7162   -0.3987 H         1 <0>         0.4134
     28 H5          4.5079   -2.5635   -0.6972 H         1 <0>         0.1081
     29 H6          3.5101   -1.6696   -1.8647 H         1 <0>         0.0835
     30 H7          3.9428   -0.9938    1.0735 H         1 <0>         0.1090
     31 H8          5.1571    1.3811    1.1964 H         1 <0>         0.0953
     32 H9          5.7301    2.0293   -0.3557 H         1 <0>         0.0943
     33 H10         3.6688    2.8368   -0.9449 H         1 <0>         0.0867
     34 H11         3.5708    2.9985    0.8138 H         1 <0>         0.1023
     35 H12         6.2347    1.5899   -2.3513 H         1 <0>         0.1607
     36 H13         7.3621    0.9236   -1.1458 H         1 <0>         0.1609
     37 H14         8.8604   -0.8365   -1.7445 H         1 <0>         0.1246
     38 H15         7.4065   -1.8271   -2.0115 H         1 <0>         0.1466
     39 H16         9.3642   -2.7784   -3.2009 H         1 <0>         0.1119
     40 H17         8.1172   -2.2389   -4.3521 H         1 <0>         0.0887
     41 H18        10.6211   -0.6880   -3.5450 H         1 <0>         0.0816
     42 H19        10.3350   -1.4851   -5.1122 H         1 <0>         0.0947
     43 H20         9.8609    0.9716   -5.1990 H         1 <0>         0.1143
     44 H21         8.4129   -0.0067   -5.5414 H         1 <0>         0.0888
     45 H22         7.8913    1.8334   -3.9619 H         1 <0>         0.1313
     46 H23         9.1334    1.2244   -2.8426 H         1 <0>         0.1309
     47 H24         6.7942   -0.2935   -3.7546 H         1 <0>         0.4294
@<TRIPOS>BOND
     1    1    6 ar
     2    1    2 ar
     3    1   24 1
     4    2    3 ar
     5    2   25 1
     6    3   14 1
     7    3    4 ar
     8    4   11 1
     9    4    5 ar
    10    5    6 ar
    11    5    7 1
    12    6   26 1
    13    7    8 2
    14    7    9 am
    15    9   10 1
    16    9   27 1
    17   10   11 1
    18   10   28 1
    19   10   29 1
    20   11   12 1
    21   11   30 1
    22   12   13 1
    23   12   15 am
    24   13   14 1
    25   13   31 1
    26   13   32 1
    27   14   33 1
    28   14   34 1
    29   15   16 2
    30   15   17 1
    31   17   18 1
    32   17   35 1
    33   17   36 1
    34   18   23 1
    35   18   19 1
    36   18   47 1
    37   19   20 1
    38   19   37 1
    39   19   38 1
    40   20   21 1
    41   20   39 1
    42   20   40 1
    43   21   22 1
    44   21   41 1
    45   21   42 1
    46   22   23 1
    47   22   43 1
    48   22   44 1
    49   23   45 1
    50   23   46 1
@<TRIPOS>MOLECULE
CHEMBL611958
   55    59     0     0     0
SMALL
USER_CHARGES

@<TRIPOS>ATOM
      1 C1         -0.0167    1.3786    0.0096 C.ar      1 <0>        -0.1817
      2 C2          1.1696    2.0893    0.0168 C.ar      1 <0>        -0.0711
      3 C3          2.3775    1.4198    0.0017 C.ar      1 <0>        -0.2024
      4 C4          2.3998    0.0311   -0.0206 C.ar      1 <0>         0.2204
      5 C5          1.2063   -0.6796   -0.0277 C.ar      1 <0>        -0.2009
      6 C6          0.0020   -0.0039   -0.0126 C.ar      1 <0>        -0.0706
      7 N1          3.6196   -0.6492   -0.0363 N.pl3     1 <0>        -0.6322
      8 C7          4.8906    0.0825   -0.1489 C.3       1 <0>         0.1267
      9 C8          5.8239   -0.3878    0.9718 C.3       1 <0>         0.0409
     10 N2          5.9432   -1.8512    0.9235 N.3       1 <0>        -0.5190
     11 C9          4.6488   -2.4998    1.1718 C.3       1 <0>         0.0367
     12 C10         3.6676   -2.1156    0.0654 C.3       1 <0>         0.1294
     13 C11         6.9609   -2.3278    1.8696 C.3       1 <0>         0.0382
     14 C12         7.2309   -3.7897    1.6226 C.2       1 <0>         0.5230
     15 O1          6.6343   -4.3767    0.7449 O.2       1 <0>        -0.5105
     16 N3          8.1353   -4.4449    2.3771 N.am      1 <0>        -0.6076
     17 C13         8.8681   -3.7643    3.4494 C.3       1 <0>         0.1085
     18 C14        10.3653   -3.8536    3.2182 C.3       1 <0>        -0.0972
     19 C15        10.7958   -5.1046    2.5107 C.ar      1 <0>        -0.0752
     20 C16        12.1643   -5.3388    2.3890 C.ar      1 <0>        -0.0931
     21 C17        12.6389   -6.4665    1.7513 C.ar      1 <0>        -0.1209
     22 C18        11.7580   -7.3812    1.2096 C.ar      1 <0>        -0.0561
     23 C19        10.3893   -7.1534    1.3157 C.ar      1 <0>        -0.1247
     24 C20         9.9160   -6.0236    1.9932 C.ar      1 <0>        -0.0659
     25 C21         8.4202   -5.8689    2.1607 C.3       1 <0>         0.1716
     26 C22         7.6996   -6.3623    0.9095 C.3       1 <0>         0.1246
     27 N4          8.1158   -7.7295    0.5932 N.am      1 <0>        -0.7312
     28 C23         9.4153   -8.0968    0.7271 C.2       1 <0>         0.5602
     29 O2          9.7735   -9.2038    0.3751 O.2       1 <0>        -0.5311
     30 H1         -0.9598    1.9045    0.0260 H         1 <0>         0.1172
     31 H2          1.1515    3.1690    0.0338 H         1 <0>         0.1197
     32 H3          3.3036    1.9754    0.0070 H         1 <0>         0.1207
     33 H4          1.2202   -1.7594   -0.0454 H         1 <0>         0.1210
     34 H5         -0.9263   -0.5558   -0.0182 H         1 <0>         0.1199
     35 H6          5.3474   -0.1241   -1.1168 H         1 <0>         0.0713
     36 H7          4.7074    1.1522   -0.0481 H         1 <0>         0.0883
     37 H8          6.8078    0.0619    0.8384 H         1 <0>         0.0874
     38 H9          5.4142   -0.0879    1.9362 H         1 <0>         0.0411
     39 H10         4.7804   -3.5818    1.1834 H         1 <0>         0.1031
     40 H11         4.2554   -2.1704    2.1334 H         1 <0>         0.0333
     41 H12         2.6762   -2.4985    0.3078 H         1 <0>         0.0853
     42 H13         4.0046   -2.5375   -0.8814 H         1 <0>         0.0719
     43 H14         7.8808   -1.7599    1.7304 H         1 <0>         0.1077
     44 H15         6.6009   -2.1921    2.8894 H         1 <0>         0.0668
     45 H16         8.5713   -2.7158    3.4775 H         1 <0>         0.0944
     46 H17         8.6238   -4.2313    4.4035 H         1 <0>         0.0785
     47 H18        10.6777   -2.9938    2.6257 H         1 <0>         0.0849
     48 H19        10.8696   -3.8088    4.1835 H         1 <0>         0.0934
     49 H20        12.8641   -4.6267    2.8006 H         1 <0>         0.1298
     50 H21        13.7031   -6.6344    1.6760 H         1 <0>         0.1342
     51 H22        12.1272   -8.2638    0.7085 H         1 <0>         0.1399
     52 H23         8.0865   -6.4424    3.0254 H         1 <0>         0.0960
     53 H24         6.6234   -6.3429    1.0812 H         1 <0>         0.1083
     54 H25         7.9414   -5.7082    0.0718 H         1 <0>         0.0875
     55 H26         7.4597   -8.3710    0.2787 H         1 <0>         0.4097
@<TRIPOS>BOND
     1    1    6 ar
     2    1    2 ar
     3    1   30 1
     4    2    3 ar
     5    2   31 1
     6    3    4 ar
     7    3   32 1
     8    4    5 ar
     9    4    7 1
    10    5    6 ar
    11    5   33 1
    12    6   34 1
    13    7   12 1
    14    7    8 1
    15    8    9 1
    16    8   35 1
    17    8   36 1
    18    9   10 1
    19    9   37 1
    20    9   38 1
    21   10   11 1
    22   10   13 1
    23   11   12 1
    24   11   39 1
    25   11   40 1
    26   12   41 1
    27   12   42 1
    28   13   14 1
    29   13   43 1
    30   13   44 1
    31   14   15 2
    32   14   16 am
    33   16   25 1
    34   16   17 1
    35   17   18 1
    36   17   45 1
    37   17   46 1
    38   18   19 1
    39   18   47 1
    40   18   48 1
    41   19   24 ar
    42   19   20 ar
    43   20   21 ar
    44   20   49 1
    45   21   22 ar
    46   21   50 1
    47   22   23 ar
    48   22   51 1
    49   23   28 1
    50   23   24 ar
    51   24   25 1
    52   25   26 1
    53   25   52 1
    54   26   27 1
    55   26   53 1
    56   26   54 1
    57   27   28 am
    58   27   55 1
    59   28   29 2
@<TRIPOS>MOLECULE
CHEMBL611958__1
   55    59     0     0     0
SMALL
USER_CHARGES

@<TRIPOS>ATOM
      1 C1         -0.0167    1.3786    0.0096 C.ar      1 <0>        -0.1817
      2 C2          1.1696    2.0893    0.0168 C.ar      1 <0>        -0.0711
      3 C3          2.3775    1.4198    0.0017 C.ar      1 <0>        -0.2024
      4 C4          2.3998    0.0311   -0.0206 C.ar      1 <0>         0.2203
      5 C5          1.2063   -0.6796   -0.0277 C.ar      1 <0>        -0.2009
      6 C6          0.0020   -0.0039   -0.0126 C.ar      1 <0>        -0.0706
      7 N1          3.6196   -0.6492   -0.0363 N.pl3     1 <0>        -0.6322
      8 C7          4.8906    0.0825   -0.1489 C.3       1 <0>         0.1268
      9 C8          5.8239   -0.3878    0.9718 C.3       1 <0>         0.0408
     10 N2          5.9432   -1.8512    0.9235 N.3       1 <0>        -0.5185
     11 C9          4.6488   -2.4998    1.1718 C.3       1 <0>         0.0367
     12 C10         3.6676   -2.1156    0.0654 C.3       1 <0>         0.1296
     13 C11         6.9609   -2.3278    1.8696 C.3       1 <0>         0.0380
     14 C12         7.2309   -3.7897    1.6226 C.2       1 <0>         0.5233
     15 O1          6.6343   -4.3767    0.7449 O.2       1 <0>        -0.5107
     16 N3          8.1353   -4.4449    2.3771 N.am      1 <0>        -0.6070
     17 C13         8.8681   -3.7643    3.4494 C.3       1 <0>         0.1083
     18 C14         8.6292   -4.4492    4.7825 C.3       1 <0>        -0.0975
     19 C15         8.3976   -5.9273    4.6716 C.ar      1 <0>        -0.0755
     20 C16         8.3171   -6.6585    5.8554 C.ar      1 <0>        -0.0940
     21 C17         8.1052   -8.0217    5.8363 C.ar      1 <0>        -0.1207
     22 C18         7.9566   -8.6851    4.6346 C.ar      1 <0>        -0.0562
     23 C19         8.0247   -7.9645    3.4462 C.ar      1 <0>        -0.1265
     24 C20         8.2731   -6.5872    3.4735 C.ar      1 <0>        -0.0678
     25 C21         8.4202   -5.8689    2.1607 C.3       1 <0>         0.1711
     26 C22         7.4453   -6.4481    1.1397 C.3       1 <0>         0.1240
     27 N4          7.6124   -7.8995    1.0491 N.am      1 <0>        -0.7228
     28 C23         7.8460   -8.6351    2.1410 C.2       1 <0>         0.5596
     29 O2          7.8978   -9.8472    2.0651 O.2       1 <0>        -0.5362
     30 H1         -0.9598    1.9045    0.0260 H         1 <0>         0.1173
     31 H2          1.1515    3.1690    0.0338 H         1 <0>         0.1198
     32 H3          3.3036    1.9754    0.0070 H         1 <0>         0.1207
     33 H4          1.2202   -1.7594   -0.0454 H         1 <0>         0.1209
     34 H5         -0.9263   -0.5558   -0.0182 H         1 <0>         0.1199
     35 H6          5.3474   -0.1241   -1.1168 H         1 <0>         0.0715
     36 H7          4.7074    1.1522   -0.0481 H         1 <0>         0.0883
     37 H8          6.8078    0.0619    0.8384 H         1 <0>         0.0878
     38 H9          5.4142   -0.0879    1.9362 H         1 <0>         0.0409
     39 H10         4.7804   -3.5818    1.1834 H         1 <0>         0.1026
     40 H11         4.2554   -2.1704    2.1334 H         1 <0>         0.0330
     41 H12         2.6762   -2.4985    0.3078 H         1 <0>         0.0852
     42 H13         4.0046   -2.5375   -0.8814 H         1 <0>         0.0721
     43 H14         7.8808   -1.7599    1.7304 H         1 <0>         0.1088
     44 H15         6.6009   -2.1921    2.8894 H         1 <0>         0.0661
     45 H16         9.9341   -3.7818    3.2228 H         1 <0>         0.0797
     46 H17         8.5324   -2.7292    3.5125 H         1 <0>         0.0945
     47 H18         9.4963   -4.2799    5.4209 H         1 <0>         0.0938
     48 H19         7.7587   -3.9951    5.2558 H         1 <0>         0.0834
     49 H20         8.4227   -6.1502    6.8024 H         1 <0>         0.1294
     50 H21         8.0556   -8.5716    6.7645 H         1 <0>         0.1340
     51 H22         7.7897   -9.7520    4.6172 H         1 <0>         0.1399
     52 H23         9.4416   -5.9848    1.7982 H         1 <0>         0.0964
     53 H24         6.4242   -6.2205    1.4457 H         1 <0>         0.0867
     54 H25         7.6360   -6.0010    0.1641 H         1 <0>         0.1114
     55 H26         7.5635   -8.3357    0.1841 H         1 <0>         0.4095
@<TRIPOS>BOND
     1    1    6 ar
     2    1    2 ar
     3    1   30 1
     4    2    3 ar
     5    2   31 1
     6    3    4 ar
     7    3   32 1
     8    4    5 ar
     9    4    7 1
    10    5    6 ar
    11    5   33 1
    12    6   34 1
    13    7   12 1
    14    7    8 1
    15    8    9 1
    16    8   35 1
    17    8   36 1
    18    9   10 1
    19    9   37 1
    20    9   38 1
    21   10   11 1
    22   10   13 1
    23   11   12 1
    24   11   39 1
    25   11   40 1
    26   12   41 1
    27   12   42 1
    28   13   14 1
    29   13   43 1
    30   13   44 1
    31   14   15 2
    32   14   16 am
    33   16   25 1
    34   16   17 1
    35   17   18 1
    36   17   45 1
    37   17   46 1
    38   18   19 1
    39   18   47 1
    40   18   48 1
    41   19   24 ar
    42   19   20 ar
    43   20   21 ar
    44   20   49 1
    45   21   22 ar
    46   21   50 1
    47   22   23 ar
    48   22   51 1
    49   23   28 1
    50   23   24 ar
    51   24   25 1
    52   25   26 1
    53   25   52 1
    54   26   27 1
    55   26   53 1
    56   26   54 1
    57   27   28 am
    58   27   55 1
    59   28   29 2
@<TRIPOS>MOLECULE
CHEMBL320579
   57    60     0     0     0
SMALL
USER_CHARGES

@<TRIPOS>ATOM
      1 C1         -0.0167    1.3818    0.0096 C.ar      1 <0>        -0.2918
      2 C2          1.1915    2.0609    0.0018 C.ar      1 <0>         0.1949
      3 N1          2.3197    1.3705   -0.0127 N.ar      1 <0>        -0.5710
      4 C3          2.3029    0.0457   -0.0197 C.ar      1 <0>         0.5650
      5 N2          1.1654   -0.6335   -0.0129 N.ar      1 <0>        -0.5724
      6 C4          0.0021   -0.0041    0.0020 C.ar      1 <0>         0.1941
      7 N3          3.5022   -0.6451   -0.0348 N.pl3     1 <0>        -0.5857
      8 C5          4.7817    0.0778   -0.0370 C.3       1 <0>         0.1144
      9 C6          5.6243   -0.4138    1.1465 C.3       1 <0>         0.0972
     10 N4          5.6410   -1.8833    1.1327 N.am      1 <0>        -0.6144
     11 C7          4.3614   -2.6062    1.1349 C.3       1 <0>         0.0913
     12 C8          3.5188   -2.1146   -0.0429 C.3       1 <0>         0.1125
     13 C9          6.8088   -2.5560    1.1180 C.2       1 <0>         0.5212
     14 O1          7.8585   -1.9485    1.1160 O.2       1 <0>        -0.5293
     15 C10         6.8102   -4.0629    1.1041 C.3       1 <0>        -0.1541
     16 C11         8.2532   -4.5714    1.0888 C.3       1 <0>         0.1347
     17 N5          8.2546   -6.0364    1.0753 N.am      1 <0>        -0.7265
     18 C12         9.4224   -6.7090    1.0605 C.2       1 <0>         0.4972
     19 O2         10.4721   -6.1016    1.0585 O.2       1 <0>        -0.5149
     20 C13         9.4238   -8.2159    1.0466 C.3       1 <0>         0.0820
     21 N6         10.8055   -8.7028    1.0320 N.am      1 <0>        -0.5235
     22 C14        11.4302   -8.9088   -0.1881 C.2       1 <0>         0.2198
     23 C15        12.6974   -9.3303   -0.1878 C.2       1 <0>        -0.2443
     24 C16        13.3352   -9.5988    1.0622 C.2       1 <0>         0.5570
     25 O3         14.4782  -10.0186    1.0779 O.2       1 <0>        -0.5045
     26 N7         12.6871   -9.3925    2.2192 N.am      1 <0>        -0.6536
     27 H1         13.1266   -9.5731    3.0649 H         1 <0>         0.4356
     28 C17        11.4235   -8.9284    2.1963 C.2       1 <0>         0.7070
     29 O4         10.8387   -8.7171    3.2412 O.2       1 <0>        -0.5342
     30 C18        13.5668   -9.5354   -1.4031 C.3       1 <0>        -0.0097
     31 S1         12.5396   -9.6971   -2.8899 S.3       1 <0>        -0.2339
     32 C19        11.3398   -8.3465   -2.6547 C.3       1 <0>        -0.0825
     33 C20        10.5593   -8.6431   -1.3821 C.3       1 <0>        -0.0981
     34 H2         -0.9525    1.9208    0.0259 H         1 <0>         0.1453
     35 H3          1.2116    3.1407    0.0070 H         1 <0>         0.1682
     36 H4         -0.9219   -0.5632    0.0082 H         1 <0>         0.1682
     37 H5          5.3111   -0.1183   -0.9694 H         1 <0>         0.0718
     38 H6          4.5978    1.1474    0.0642 H         1 <0>         0.1124
     39 H7          6.6423   -0.0356    1.0529 H         1 <0>         0.1081
     40 H8          5.1849   -0.0617    2.0797 H         1 <0>         0.0735
     41 H9          4.5453   -3.6758    1.0337 H         1 <0>         0.0998
     42 H10         3.8320   -2.4101    2.0673 H         1 <0>         0.0774
     43 H11         2.5011   -2.4925    0.0544 H         1 <0>         0.1130
     44 H12         3.9562   -2.4704   -0.9758 H         1 <0>         0.0713
     45 H13         6.3033   -4.4350    1.9944 H         1 <0>         0.1041
     46 H14         6.2903   -4.4185    0.2145 H         1 <0>         0.1040
     47 H15         8.7602   -4.1993    0.1985 H         1 <0>         0.0807
     48 H16         8.7731   -4.2158    1.9784 H         1 <0>         0.0801
     49 H17         7.4150   -6.5222    1.0769 H         1 <0>         0.4033
     50 H18         8.9168   -8.5880    1.9369 H         1 <0>         0.1381
     51 H19         8.9039   -8.5716    0.1570 H         1 <0>         0.1318
     52 H20        14.2351   -8.6818   -1.5172 H         1 <0>         0.1037
     53 H21        14.1600  -10.4406   -1.2740 H         1 <0>         0.1285
     54 H22        11.8662   -7.3974   -2.5533 H         1 <0>         0.0969
     55 H23        10.6591   -8.3040   -3.5050 H         1 <0>         0.1257
     56 H24         9.9295   -9.5157   -1.5551 H         1 <0>         0.1166
     57 H25         9.9161   -7.7912   -1.1614 H         1 <0>         0.0984
@<TRIPOS>BOND
     1    1    6 ar
     2    1    2 ar
     3    1   34 1
     4    2    3 ar
     5    2   35 1
     6    3    4 ar
     7    4    5 ar
     8    4    7 1
     9    5    6 ar
    10    6   36 1
    11    7   12 1
    12    7    8 1
    13    8    9 1
    14    8   37 1
    15    8   38 1
    16    9   10 1
    17    9   39 1
    18    9   40 1
    19   10   11 1
    20   10   13 am
    21   11   12 1
    22   11   41 1
    23   11   42 1
    24   12   43 1
    25   12   44 1
    26   13   14 2
    27   13   15 1
    28   15   16 1
    29   15   45 1
    30   15   46 1
    31   16   17 1
    32   16   47 1
    33   16   48 1
    34   17   18 am
    35   17   49 1
    36   18   19 2
    37   18   20 1
    38   20   21 1
    39   20   50 1
    40   20   51 1
    41   21   28 am
    42   21   22 1
    43   22   33 1
    44   22   23 2
    45   23   24 1
    46   23   30 1
    47   24   25 2
    48   24   26 am
    49   26   27 1
    50   26   28 am
    51   28   29 2
    52   30   31 1
    53   30   52 1
    54   30   53 1
    55   31   32 1
    56   32   33 1
    57   32   54 1
    58   32   55 1
    59   33   56 1
    60   33   57 1
@<TRIPOS>MOLECULE
CHEMBL595679
   57    61     0     0     0
SMALL
USER_CHARGES

@<TRIPOS>ATOM
      1 C1         -0.0167    1.3781    0.0096 C.ar      1 <0>        -0.1098
      2 C2          1.1709    2.0855    0.0021 C.ar      1 <0>        -0.1130
      3 C3          2.3773    1.4107   -0.0130 C.ar      1 <0>        -0.1098
      4 C4          2.3960    0.0285   -0.0201 C.ar      1 <0>        -0.0974
      5 C5          1.2084   -0.6789   -0.0117 C.ar      1 <0>        -0.1161
      6 C6          0.0021   -0.0041    0.0020 C.ar      1 <0>        -0.1144
      7 C7          3.7112   -0.7071   -0.0376 C.3       1 <0>        -0.0544
      8 C8          3.7885   -1.5882   -1.2877 C.3       1 <0>        -0.1390
      9 C9          5.0904   -2.3918   -1.2589 C.3       1 <0>        -0.0059
     10 N1          5.1211   -3.2377   -0.0597 N.4       1 <0>        -0.3701
     11 C10         5.1196   -2.3966    1.1432 C.3       1 <0>        -0.0179
     12 C11         3.8189   -1.5931    1.2068 C.3       1 <0>        -0.1349
     13 C12         6.3355   -4.0641   -0.0761 C.3       1 <0>        -0.0326
     14 C13         6.3087   -5.0196    1.0889 C.2       1 <0>         0.5072
     15 O1          5.3703   -5.0128    1.8572 O.2       1 <0>        -0.5217
     16 N2          7.3274   -5.8816    1.2770 N.am      1 <0>        -0.5786
     17 C14         8.4784   -5.9096    0.3690 C.3       1 <0>         0.0992
     18 C15         8.6430   -7.2863   -0.2482 C.3       1 <0>        -0.0979
     19 C16         8.1929   -8.4072    0.6416 C.ar      1 <0>        -0.0810
     20 C17         8.4444   -9.7102    0.2156 C.ar      1 <0>        -0.0900
     21 C18         8.0606  -10.7943    0.9778 C.ar      1 <0>        -0.1126
     22 C19         7.4057  -10.6029    2.1781 C.ar      1 <0>        -0.0501
     23 C20         7.1398   -9.3070    2.6095 C.ar      1 <0>        -0.1217
     24 C21         7.5621   -8.2123    1.8459 C.ar      1 <0>        -0.0760
     25 C22         7.3301   -6.8245    2.4025 C.3       1 <0>         0.1703
     26 C23         5.9918   -6.7705    3.1334 C.3       1 <0>         0.1257
     27 N3          5.9260   -7.8265    4.1450 N.am      1 <0>        -0.7335
     28 C24         6.4191   -9.0620    3.8766 C.2       1 <0>         0.5583
     29 O2          6.2789   -9.9607    4.6830 O.2       1 <0>        -0.5159
     30 H1         -0.9591    1.9053    0.0259 H         1 <0>         0.1275
     31 H2          1.1563    3.1654    0.0076 H         1 <0>         0.1277
     32 H3          3.3051    1.9634   -0.0196 H         1 <0>         0.1235
     33 H4          1.2231   -1.7588   -0.0176 H         1 <0>         0.1180
     34 H5         -0.9258   -0.5567    0.0082 H         1 <0>         0.1264
     35 H6          4.5307    0.0115   -0.0454 H         1 <0>         0.0957
     36 H7          2.9394   -2.2714   -1.3046 H         1 <0>         0.0912
     37 H8          3.7685   -0.9595   -2.1779 H         1 <0>         0.1167
     38 H9          5.1488   -3.0201   -2.1477 H         1 <0>         0.1335
     39 H10         5.9388   -1.7078   -1.2423 H         1 <0>         0.1325
     40 H11         5.1996   -3.0283    2.0278 H         1 <0>         0.1485
     41 H12         5.9674   -1.7124    1.1086 H         1 <0>         0.1261
     42 H13         3.8205   -0.9680    2.0997 H         1 <0>         0.1140
     43 H14         2.9704   -2.2764    1.2417 H         1 <0>         0.0912
     44 H15         6.3785   -4.6282   -1.0078 H         1 <0>         0.1611
     45 H16         7.2130   -3.4220    0.0007 H         1 <0>         0.1614
     46 H17         8.3281   -5.1767   -0.4236 H         1 <0>         0.0943
     47 H18         9.3807   -5.6556    0.9253 H         1 <0>         0.0950
     48 H19         8.0676   -7.3239   -1.1732 H         1 <0>         0.0869
     49 H20         9.6952   -7.4354   -0.4903 H         1 <0>         0.1020
     50 H21         8.9479   -9.8738   -0.7257 H         1 <0>         0.1335
     51 H22         8.2734  -11.7959    0.6345 H         1 <0>         0.1395
     52 H23         7.1029  -11.4500    2.7757 H         1 <0>         0.1445
     53 H24         8.1342   -6.5665    3.0917 H         1 <0>         0.1092
     54 H25         5.8832   -5.7998    3.6170 H         1 <0>         0.1074
     55 H26         5.1826   -6.9068    2.4159 H         1 <0>         0.0832
     56 H27         5.5200   -7.6421    5.0064 H         1 <0>         0.4135
     57 H28         4.3092   -3.8367   -0.0510 H         1 <0>         0.4295
@<TRIPOS>BOND
     1    1    6 ar
     2    1    2 ar
     3    1   30 1
     4    2    3 ar
     5    2   31 1
     6    3    4 ar
     7    3   32 1
     8    4    5 ar
     9    4    7 1
    10    5    6 ar
    11    5   33 1
    12    6   34 1
    13    7   12 1
    14    7    8 1
    15    7   35 1
    16    8    9 1
    17    8   36 1
    18    8   37 1
    19    9   10 1
    20    9   38 1
    21    9   39 1
    22   10   11 1
    23   10   13 1
    24   10   57 1
    25   11   12 1
    26   11   40 1
    27   11   41 1
    28   12   42 1
    29   12   43 1
    30   13   14 1
    31   13   44 1
    32   13   45 1
    33   14   15 2
    34   14   16 am
    35   16   25 1
    36   16   17 1
    37   17   18 1
    38   17   46 1
    39   17   47 1
    40   18   19 1
    41   18   48 1
    42   18   49 1
    43   19   24 ar
    44   19   20 ar
    45   20   21 ar
    46   20   50 1
    47   21   22 ar
    48   21   51 1
    49   22   23 ar
    50   22   52 1
    51   23   28 1
    52   23   24 ar
    53   24   25 1
    54   25   26 1
    55   25   53 1
    56   26   27 1
    57   26   54 1
    58   26   55 1
    59   27   28 am
    60   27   56 1
    61   28   29 2
@<TRIPOS>MOLECULE
CHEMBL595679__1
   57    61     0     0     0
SMALL
USER_CHARGES

@<TRIPOS>ATOM
      1 C1         -0.0167    1.3781    0.0096 C.ar      1 <0>        -0.1098
      2 C2          1.1709    2.0855    0.0021 C.ar      1 <0>        -0.1130
      3 C3          2.3773    1.4107   -0.0130 C.ar      1 <0>        -0.1099
      4 C4          2.3960    0.0285   -0.0201 C.ar      1 <0>        -0.0974
      5 C5          1.2084   -0.6789   -0.0117 C.ar      1 <0>        -0.1160
      6 C6          0.0021   -0.0041    0.0020 C.ar      1 <0>        -0.1144
      7 C7          3.7112   -0.7071   -0.0376 C.3       1 <0>        -0.0545
      8 C8          3.7885   -1.5882   -1.2877 C.3       1 <0>        -0.1388
      9 C9          5.0904   -2.3918   -1.2589 C.3       1 <0>        -0.0059
     10 N1          5.1211   -3.2377   -0.0597 N.4       1 <0>        -0.3697
     11 C10         5.1196   -2.3966    1.1432 C.3       1 <0>        -0.0181
     12 C11         3.8189   -1.5931    1.2068 C.3       1 <0>        -0.1347
     13 C12         6.3355   -4.0641   -0.0761 C.3       1 <0>        -0.0326
     14 C13         6.3087   -5.0196    1.0889 C.2       1 <0>         0.5074
     15 O1          5.3703   -5.0128    1.8572 O.2       1 <0>        -0.5219
     16 N2          7.3274   -5.8816    1.2770 N.am      1 <0>        -0.5780
     17 C14         8.4784   -5.9096    0.3690 C.3       1 <0>         0.0991
     18 C15         9.7681   -5.6565    1.1278 C.3       1 <0>        -0.0979
     19 C16         9.7471   -6.1558    2.5424 C.ar      1 <0>        -0.0809
     20 C17        10.9377   -6.0985    3.2647 C.ar      1 <0>        -0.0907
     21 C18        10.9989   -6.5380    4.5710 C.ar      1 <0>        -0.1123
     22 C19         9.8694   -7.0342    5.1909 C.ar      1 <0>        -0.0502
     23 C20         8.6722   -7.0871    4.4835 C.ar      1 <0>        -0.1235
     24 C21         8.6268   -6.6699    3.1481 C.ar      1 <0>        -0.0775
     25 C22         7.3301   -6.8245    2.4025 C.3       1 <0>         0.1699
     26 C23         6.1575   -6.5310    3.3337 C.3       1 <0>         0.1251
     27 N3          6.2542   -7.3521    4.5416 N.am      1 <0>        -0.7253
     28 C24         7.4362   -7.5887    5.1204 C.2       1 <0>         0.5580
     29 O2          7.4945   -8.1999    6.1695 O.2       1 <0>        -0.5210
     30 H1         -0.9591    1.9053    0.0259 H         1 <0>         0.1275
     31 H2          1.1563    3.1654    0.0076 H         1 <0>         0.1277
     32 H3          3.3051    1.9634   -0.0196 H         1 <0>         0.1234
     33 H4          1.2231   -1.7588   -0.0176 H         1 <0>         0.1181
     34 H5         -0.9258   -0.5567    0.0082 H         1 <0>         0.1264
     35 H6          4.5307    0.0115   -0.0454 H         1 <0>         0.0956
     36 H7          2.9394   -2.2714   -1.3046 H         1 <0>         0.0915
     37 H8          3.7685   -0.9595   -2.1779 H         1 <0>         0.1168
     38 H9          5.1488   -3.0201   -2.1477 H         1 <0>         0.1340
     39 H10         5.9388   -1.7078   -1.2423 H         1 <0>         0.1321
     40 H11         5.1996   -3.0283    2.0278 H         1 <0>         0.1481
     41 H12         5.9674   -1.7124    1.1086 H         1 <0>         0.1256
     42 H13         3.8205   -0.9680    2.0997 H         1 <0>         0.1138
     43 H14         2.9704   -2.2764    1.2417 H         1 <0>         0.0914
     44 H15         6.3785   -4.6282   -1.0078 H         1 <0>         0.1625
     45 H16         7.2130   -3.4220    0.0007 H         1 <0>         0.1603
     46 H17         8.5314   -6.8857   -0.1132 H         1 <0>         0.0952
     47 H18         8.3533   -5.1401   -0.3928 H         1 <0>         0.0944
     48 H19        10.5852   -6.1462    0.5981 H         1 <0>         0.1021
     49 H20         9.9594   -4.5835    1.1404 H         1 <0>         0.0866
     50 H21        11.8264   -5.7042    2.7943 H         1 <0>         0.1332
     51 H22        11.9335   -6.4941    5.1105 H         1 <0>         0.1392
     52 H23         9.9146   -7.3780    6.2137 H         1 <0>         0.1444
     53 H24         7.2506   -7.8436    2.0239 H         1 <0>         0.1088
     54 H25         6.1718   -5.4770    3.6113 H         1 <0>         0.0843
     55 H26         5.2230   -6.7541    2.8191 H         1 <0>         0.1088
     56 H27         5.4518   -7.7400    4.9244 H         1 <0>         0.4132
     57 H28         4.3092   -3.8367   -0.0510 H         1 <0>         0.4295
@<TRIPOS>BOND
     1    1    6 ar
     2    1    2 ar
     3    1   30 1
     4    2    3 ar
     5    2   31 1
     6    3    4 ar
     7    3   32 1
     8    4    5 ar
     9    4    7 1
    10    5    6 ar
    11    5   33 1
    12    6   34 1
    13    7   12 1
    14    7    8 1
    15    7   35 1
    16    8    9 1
    17    8   36 1
    18    8   37 1
    19    9   10 1
    20    9   38 1
    21    9   39 1
    22   10   11 1
    23   10   13 1
    24   10   57 1
    25   11   12 1
    26   11   40 1
    27   11   41 1
    28   12   42 1
    29   12   43 1
    30   13   14 1
    31   13   44 1
    32   13   45 1
    33   14   15 2
    34   14   16 am
    35   16   25 1
    36   16   17 1
    37   17   18 1
    38   17   46 1
    39   17   47 1
    40   18   19 1
    41   18   48 1
    42   18   49 1
    43   19   24 ar
    44   19   20 ar
    45   20   21 ar
    46   20   50 1
    47   21   22 ar
    48   21   51 1
    49   22   23 ar
    50   22   52 1
    51   23   28 1
    52   23   24 ar
    53   24   25 1
    54   25   26 1
    55   25   53 1
    56   26   27 1
    57   26   54 1
    58   26   55 1
    59   27   28 am
    60   27   56 1
    61   28   29 2
@<TRIPOS>MOLECULE
CHEMBL201869
   51    55     0     0     0
SMALL
USER_CHARGES

@<TRIPOS>ATOM
      1 C1          7.0710   -6.6777   -2.8465 C.ar      1 <0>        -0.1154
      2 C2          7.9784   -6.4813   -1.8219 C.ar      1 <0>        -0.1198
      3 C3          7.5822   -5.8278   -0.6733 C.ar      1 <0>        -0.1118
      4 C4          6.2807   -5.3629   -0.5404 C.ar      1 <0>        -0.1005
      5 C5          5.3787   -5.5491   -1.5635 C.ar      1 <0>        -0.0681
      6 C6          5.7786   -6.2146   -2.7162 C.ar      1 <0>        -0.1190
      7 C7          3.9603   -5.0464   -1.5039 C.3       1 <0>        -0.0983
      8 C8          3.5347   -4.7888   -0.0593 C.3       1 <0>         0.1122
      9 N1          4.6035   -4.0185    0.5976 N.am      1 <0>        -0.6097
     10 C9          5.9093   -4.6699    0.7466 C.3       1 <0>         0.1421
     11 C10         4.3907   -2.7648    1.0443 C.2       1 <0>         0.5670
     12 O1          3.3355   -2.2079    0.8124 O.2       1 <0>        -0.5296
     13 C11         5.4409   -2.0669    1.8163 C.ar      1 <0>        -0.1298
     14 C12         5.5993   -0.6853    1.6943 C.ar      1 <0>        -0.0599
     15 C13         6.5807   -0.0403    2.4178 C.ar      1 <0>        -0.1209
     16 C14         7.4075   -0.7596    3.2627 C.ar      1 <0>        -0.0775
     17 C15         7.2558   -2.1289    3.3881 C.ar      1 <0>        -0.0832
     18 C16         6.2743   -2.7856    2.6745 C.ar      1 <0>        -0.0789
     19 C17         8.1610   -2.9043    4.3103 C.3       1 <0>        -0.0181
     20 C18         7.5463   -2.9635    5.6849 C.2       1 <0>         0.1368
     21 C19         8.2409   -3.6610    6.7673 C.ar      1 <0>        -0.0599
     22 C20         9.4744   -4.2845    6.5700 C.ar      1 <0>        -0.0979
     23 C21        10.0842   -4.9234    7.6132 C.ar      1 <0>        -0.0872
     24 C22         9.4935   -4.9622    8.8697 C.ar      1 <0>        -0.1107
     25 C23         8.2767   -4.3562    9.0938 C.ar      1 <0>        -0.0545
     26 C24         7.6366   -3.6978    8.0447 C.ar      1 <0>        -0.1256
     27 C25         6.3398   -3.0322    8.2193 C.2       1 <0>         0.5281
     28 N2          5.7792   -2.4148    7.1584 N.am      1 <0>        -0.5336
     29 N3          6.4017   -2.3903    5.9101 N.2       1 <0>        -0.2186
     30 O2          5.7802   -3.0374    9.3012 O.2       1 <0>        -0.5205
     31 H1          7.3748   -7.1886   -3.7482 H         1 <0>         0.1236
     32 H2          8.9930   -6.8383   -1.9201 H         1 <0>         0.1248
     33 H3          8.2897   -5.6771    0.1286 H         1 <0>         0.1246
     34 H4          5.0710   -6.3701   -3.5172 H         1 <0>         0.1226
     35 H5          3.8848   -4.1185   -2.0707 H         1 <0>         0.0826
     36 H6          3.2975   -5.7904   -1.9456 H         1 <0>         0.0885
     37 H7          2.6063   -4.2178   -0.0447 H         1 <0>         0.1005
     38 H8          3.3928   -5.7377    0.4580 H         1 <0>         0.0766
     39 H9          5.8593   -5.4028    1.5519 H         1 <0>         0.0823
     40 H10         6.6635   -3.9201    0.9856 H         1 <0>         0.1058
     41 H11         4.9552   -0.1228    1.0347 H         1 <0>         0.1317
     42 H12         6.7043    1.0286    2.3244 H         1 <0>         0.1310
     43 H13         8.1748   -0.2499    3.8264 H         1 <0>         0.1264
     44 H14         6.1541   -3.8541    2.7764 H         1 <0>         0.1300
     45 H15         8.2903   -3.9162    3.9262 H         1 <0>         0.1067
     46 H16         9.1311   -2.4105    4.3670 H         1 <0>         0.1089
     47 H17         9.9443   -4.2624    5.5978 H         1 <0>         0.1418
     48 H18        11.0384   -5.4050    7.4583 H         1 <0>         0.1367
     49 H19         9.9931   -5.4731    9.6795 H         1 <0>         0.1375
     50 H20         7.8231   -4.3903   10.0734 H         1 <0>         0.1434
     51 H21         4.9225   -1.9733    7.2675 H         1 <0>         0.4370
@<TRIPOS>BOND
     1    1    6 ar
     2    1    2 ar
     3    1   31 1
     4    2    3 ar
     5    2   32 1
     6    3    4 ar
     7    3   33 1
     8    4   10 1
     9    4    5 ar
    10    5    6 ar
    11    5    7 1
    12    6   34 1
    13    7    8 1
    14    7   35 1
    15    7   36 1
    16    8    9 1
    17    8   37 1
    18    8   38 1
    19    9   10 1
    20    9   11 am
    21   10   39 1
    22   10   40 1
    23   11   12 2
    24   11   13 1
    25   13   18 ar
    26   13   14 ar
    27   14   15 ar
    28   14   41 1
    29   15   16 ar
    30   15   42 1
    31   16   17 ar
    32   16   43 1
    33   17   18 ar
    34   17   19 1
    35   18   44 1
    36   19   20 1
    37   19   45 1
    38   19   46 1
    39   20   29 2
    40   20   21 1
    41   21   26 ar
    42   21   22 ar
    43   22   23 ar
    44   22   47 1
    45   23   24 ar
    46   23   48 1
    47   24   25 ar
    48   24   49 1
    49   25   26 ar
    50   25   50 1
    51   26   27 1
    52   27   28 am
    53   27   30 2
    54   28   29 1
    55   28   51 1
@<TRIPOS>MOLECULE
CHEMBL203597
   53    58     0     0     0
SMALL
USER_CHARGES

@<TRIPOS>ATOM
      1 C1         -1.2468    1.1554   -0.1453 C.3       1 <0>         0.0694
      2 N1         -0.5790   -0.1464   -0.0711 N.am      1 <0>        -0.6091
      3 C2         -0.4441   -0.8280    1.2187 C.3       1 <0>         0.1554
      4 C3         -1.6426   -1.7125    1.4472 C.ar      1 <0>        -0.0659
      5 C4         -2.7729   -1.2252    2.0855 C.ar      1 <0>        -0.1616
      6 C5         -3.8529   -2.0658    2.2776 C.ar      1 <0>         0.0950
      7 N2         -3.8163   -3.3168    1.8622 N.ar      1 <0>        -0.4827
      8 C6         -2.7585   -3.8141    1.2517 C.ar      1 <0>         0.0962
      9 C7         -1.6435   -3.0313    1.0191 C.ar      1 <0>        -0.1471
     10 C8         -0.0887   -0.7170   -1.1894 C.2       1 <0>         0.5676
     11 O1          0.3700   -1.8422   -1.1468 O.2       1 <0>        -0.5280
     12 C9         -0.1087    0.0242   -2.4658 C.ar      1 <0>        -0.1640
     13 C10         0.0896    1.4104   -2.4749 C.ar      1 <0>        -0.0570
     14 C11         0.0731    2.1057   -3.6480 C.ar      1 <0>        -0.1425
     15 C12        -0.1415    1.4441   -4.8566 C.ar      1 <0>         0.1625
     16 C13        -0.3417    0.0534   -4.8580 C.ar      1 <0>        -0.1061
     17 C14        -0.3191   -0.6555   -3.6643 C.ar      1 <0>         0.0018
     18 C15        -0.5386   -0.3371   -6.2674 C.ar      1 <0>        -0.0871
     19 C16        -0.7774   -1.5434   -6.9032 C.ar      1 <0>        -0.0202
     20 C17        -0.9207   -1.5833   -8.2885 C.ar      1 <0>        -0.1746
     21 C18        -0.8222   -0.3977   -9.0359 C.ar      1 <0>         0.0152
     22 C19        -0.5872    0.7922   -8.4118 C.ar      1 <0>        -0.1289
     23 C20        -0.4424    0.8436   -7.0222 C.ar      1 <0>         0.1874
     24 N3         -0.2056    1.8939   -6.1595 N.pl3     1 <0>        -0.6028
     25 H1         -0.0995    2.8191   -6.4308 H         1 <0>         0.4231
     26 C21        -0.5256    1.9099   -9.4327 C.3       1 <0>        -0.0766
     27 C22        -0.3166    1.2041  -10.7893 C.3       1 <0>        -0.1199
     28 C23        -0.9396   -0.1843  -10.5312 C.3       1 <0>        -0.0871
     29 C24        -1.1641   -2.9806   -8.6887 C.2       1 <0>         0.5650
     30 O2         -1.3322   -3.3561   -9.8328 O.2       1 <0>        -0.5247
     31 N4         -1.1734   -3.7809   -7.6087 N.am      1 <0>        -0.7246
     32 C25        -0.9353   -2.9615   -6.4148 C.3       1 <0>         0.1389
     33 H2         -0.5287    1.9452    0.0751 H         1 <0>         0.0637
     34 H3         -1.6501    1.3003   -1.1475 H         1 <0>         0.0831
     35 H4         -2.0585    1.1893    0.5814 H         1 <0>         0.0718
     36 H5          0.4607   -1.4359    1.2155 H         1 <0>         0.0987
     37 H6         -0.3816   -0.0876    2.0161 H         1 <0>         0.0936
     38 H7         -2.8087   -0.2018    2.4286 H         1 <0>         0.1330
     39 H8         -4.7371   -1.6939    2.7740 H         1 <0>         0.1556
     40 H9         -2.7651   -4.8437    0.9259 H         1 <0>         0.1562
     41 H10        -0.7820   -3.4428    0.5141 H         1 <0>         0.1417
     42 H11         0.2565    1.9334   -1.5449 H         1 <0>         0.1418
     43 H12         0.2269    3.1747   -3.6409 H         1 <0>         0.1336
     44 H13        -0.4680   -1.7252   -3.6641 H         1 <0>         0.1359
     45 H14        -1.4607    2.4700   -9.4375 H         1 <0>         0.0821
     46 H15         0.3125    2.5729   -9.2179 H         1 <0>         0.0736
     47 H16        -0.8472    1.7266  -11.5854 H         1 <0>         0.0827
     48 H17         0.7445    1.1169  -11.0230 H         1 <0>         0.0763
     49 H18        -0.3848   -0.9538  -11.0681 H         1 <0>         0.0884
     50 H19        -1.9868   -0.1913  -10.8335 H         1 <0>         0.0902
     51 H20        -1.3139   -4.7406   -7.6172 H         1 <0>         0.4270
     52 H21        -0.0253   -3.2881   -5.9114 H         1 <0>         0.1027
     53 H22        -1.7854   -3.0318   -5.7362 H         1 <0>         0.1012
@<TRIPOS>BOND
     1    1    2 1
     2    1   33 1
     3    1   34 1
     4    1   35 1
     5    2    3 1
     6    2   10 am
     7    3    4 1
     8    3   36 1
     9    3   37 1
    10    4    9 ar
    11    4    5 ar
    12    5    6 ar
    13    5   38 1
    14    6    7 ar
    15    6   39 1
    16    7    8 ar
    17    8    9 ar
    18    8   40 1
    19    9   41 1
    20   10   11 2
    21   10   12 1
    22   12   17 ar
    23   12   13 ar
    24   13   14 ar
    25   13   42 1
    26   14   15 ar
    27   14   43 1
    28   15   24 1
    29   15   16 ar
    30   16   17 ar
    31   16   18 1
    32   17   44 1
    33   18   23 ar
    34   18   19 ar
    35   19   32 1
    36   19   20 ar
    37   20   21 ar
    38   20   29 1
    39   21   28 1
    40   21   22 ar
    41   22   23 ar
    42   22   26 1
    43   23   24 1
    44   24   25 1
    45   26   27 1
    46   26   45 1
    47   26   46 1
    48   27   28 1
    49   27   47 1
    50   27   48 1
    51   28   49 1
    52   28   50 1
    53   29   30 2
    54   29   31 am
    55   31   32 1
    56   31   51 1
    57   32   52 1
    58   32   53 1
@<TRIPOS>MOLECULE
CHEMBL550501
   42    44     0     0     0
SMALL
USER_CHARGES

@<TRIPOS>ATOM
      1 C1         -0.7316    1.8011   -0.1419 C.3       1 <0>        -0.0454
      2 N1         -0.5104    0.3537   -0.2606 N.4       1 <0>        -0.3824
      3 C2          0.4844   -0.0727    0.7326 C.3       1 <0>        -0.0523
      4 C3         -1.7746   -0.3559   -0.0234 C.3       1 <0>        -0.0339
      5 C4         -1.5731   -1.8526   -0.2691 C.3       1 <0>         0.0965
      6 N2         -2.8339   -2.5603   -0.0325 N.am      1 <0>        -0.6101
      7 C5         -3.7812   -2.7568   -1.1326 C.3       1 <0>         0.0775
      8 C6         -3.1222   -3.0306    1.1972 C.2       1 <0>         0.6184
      9 O1         -2.3832   -2.7849    2.1306 O.2       1 <0>        -0.5240
     10 C7         -4.3369   -3.8450    1.4109 C.2       1 <0>         0.0468
     11 C8         -4.8174   -4.2902    2.6506 C.2       1 <0>        -0.2837
     12 C9         -5.9722   -5.0179    2.4172 C.2       1 <0>         0.3649
     13 N3         -6.8055   -5.6509    3.2655 N.2       1 <0>        -0.6121
     14 C10        -7.8679   -6.2981    2.8467 C.2       1 <0>         0.4765
     15 O2         -8.6836   -6.9226    3.7279 O.3       1 <0>        -0.6438
     16 C11        -8.1582   -6.3341    1.4075 C.ar      1 <0>        -0.1558
     17 C12        -9.2714   -7.0043    0.8990 C.ar      1 <0>        -0.0353
     18 C13        -9.4997   -7.0091   -0.4493 C.ar      1 <0>        -0.1520
     19 C14        -8.6352   -6.3548   -1.3153 C.ar      1 <0>        -0.0831
     20 C15        -7.5288   -5.6866   -0.8329 C.ar      1 <0>        -0.1449
     21 C16        -7.2802   -5.6693    0.5324 C.ar      1 <0>         0.1894
     22 N4         -6.1840   -5.0120    1.0645 N.pl3     1 <0>        -0.3452
     23 N5         -5.1563   -4.2717    0.4665 N.2       1 <0>        -0.3193
     24 H1          0.2064    2.3276   -0.3179 H         1 <0>         0.1235
     25 H2         -1.4697    2.1175   -0.8789 H         1 <0>         0.1220
     26 H3         -1.0956    2.0321    0.8593 H         1 <0>         0.1221
     27 H4          0.6485   -1.1467    0.6445 H         1 <0>         0.1256
     28 H5          1.4224    0.4538    0.5566 H         1 <0>         0.1234
     29 H6          0.1203    0.1582    1.7338 H         1 <0>         0.1253
     30 H7         -2.0930   -0.1965    1.0068 H         1 <0>         0.1361
     31 H8         -2.5376    0.0243   -0.7026 H         1 <0>         0.1319
     32 H9         -1.2547   -2.0121   -1.2992 H         1 <0>         0.0987
     33 H10        -0.8101   -2.2328    0.4101 H         1 <0>         0.1041
     34 H11        -3.6201   -3.7377   -1.5800 H         1 <0>         0.0693
     35 H12        -4.8000   -2.6948   -0.7502 H         1 <0>         0.1018
     36 H13        -3.6282   -1.9843   -1.8862 H         1 <0>         0.0637
     37 H14        -4.3677   -4.1000    3.6140 H         1 <0>         0.1510
     38 H15        -9.9486   -7.5166    1.5664 H         1 <0>         0.1423
     39 H16       -10.3610   -7.5275   -0.8440 H         1 <0>         0.1277
     40 H17        -8.8303   -6.3689   -2.3774 H         1 <0>         0.1278
     41 H18        -6.8603   -5.1803   -1.5135 H         1 <0>         0.1319
     42 H19        -0.1734    0.1399   -1.1873 H         1 <0>         0.4248
@<TRIPOS>BOND
     1    1    2 1
     2    1   24 1
     3    1   25 1
     4    1   26 1
     5    2    3 1
     6    2    4 1
     7    2   42 1
     8    3   27 1
     9    3   28 1
    10    3   29 1
    11    4    5 1
    12    4   30 1
    13    4   31 1
    14    5    6 1
    15    5   32 1
    16    5   33 1
    17    6    7 1
    18    6    8 am
    19    7   34 1
    20    7   35 1
    21    7   36 1
    22    8    9 2
    23    8   10 1
    24   10   23 2
    25   10   11 1
    26   11   12 2
    27   11   37 1
    28   12   22 1
    29   12   13 1
    30   13   14 2
    31   14   15 1
    32   14   16 1
    33   16   21 ar
    34   16   17 ar
    35   17   18 ar
    36   17   38 1
    37   18   19 ar
    38   18   39 1
    39   19   20 ar
    40   19   40 1
    41   20   21 ar
    42   20   41 1
    43   21   22 1
    44   22   23 1
@<TRIPOS>MOLECULE
CHEMBL596702
   74    78     0     0     0
SMALL
USER_CHARGES

@<TRIPOS>ATOM
      1 C1         -1.2672   -4.7810    0.0058 C.3       1 <0>        -0.1254
      2 C2         -1.2746   -5.6931    1.2055 C.2       1 <0>        -0.0457
      3 C3         -1.6808   -6.9926    1.0946 C.2       1 <0>        -0.1524
      4 C4         -1.6622   -7.7899    2.2594 C.2       1 <0>         0.4822
      5 O1         -2.0151   -8.9575    2.2132 O.2       1 <0>        -0.5246
      6 N1         -1.2505   -7.2490    3.4219 N.am      1 <0>        -0.4489
      7 H1         -1.2384   -7.7986    4.2211 H         1 <0>         0.4406
      8 N2         -0.8732   -6.0243    3.4990 N.2       1 <0>        -0.2134
      9 C5         -0.8586   -5.2301    2.4647 C.2       1 <0>         0.0667
     10 C6         -0.3976   -3.8041    2.6227 C.3       1 <0>        -0.0126
     11 C7         -0.0077   -3.5583    4.0575 C.ar      1 <0>        -0.0821
     12 C8         -0.9558   -3.1149    4.9639 C.ar      1 <0>        -0.0474
     13 C9         -0.6085   -2.8865    6.2819 C.ar      1 <0>        -0.1501
     14 C10         0.6912   -3.1004    6.7043 C.ar      1 <0>         0.1485
     15 C11         1.6526   -3.5486    5.7932 C.ar      1 <0>        -0.1721
     16 C12         1.2904   -3.7811    4.4645 C.ar      1 <0>        -0.0502
     17 C13         3.0429   -3.7794    6.2348 C.2       1 <0>         0.5729
     18 O2          3.2645   -4.4775    7.2051 O.2       1 <0>        -0.5080
     19 N3          4.0659   -3.2161    5.5620 N.am      1 <0>        -0.6130
     20 C14         3.8102   -2.2731    4.4642 C.3       1 <0>         0.0874
     21 C15         4.5518   -0.9637    4.7602 C.3       1 <0>         0.0959
     22 N4          5.9431   -1.2811    5.1116 N.am      1 <0>        -0.6054
     23 C16         6.1989   -2.2241    6.2094 C.3       1 <0>         0.0689
     24 C17         5.4572   -3.5292    5.9171 C.3       1 <0>         0.0993
     25 C18         6.9661   -0.7178    4.4388 C.2       1 <0>         0.5147
     26 O3          6.7450    0.1125    3.5829 O.2       1 <0>        -0.4775
     27 C19         8.3848   -1.1196    4.7502 C.3       1 <0>         0.0302
     28 C20         9.3684   -0.4466    3.7608 C.3       1 <0>        -0.1217
     29 C21         9.2705   -1.3554    2.5103 C.3       1 <0>        -0.1223
     30 C22         9.1459   -2.7807    3.0872 C.3       1 <0>        -0.1240
     31 C23         8.5827   -2.6308    4.5114 C.3       1 <0>        -0.1459
     32 N5          8.7248   -0.7692    6.1357 N.4       1 <0>        -0.3916
     33 C24        10.0950   -1.2407    6.4617 C.3       1 <0>        -0.0172
     34 C25        10.5019   -0.3465    7.6599 C.3       1 <0>        -0.1427
     35 C26         9.8823    1.0223    7.2958 C.3       1 <0>        -0.1409
     36 C27         8.7550    0.7007    6.2972 C.3       1 <0>        -0.0185
     37 F1          1.0307   -2.8767    7.9926 F         1 <0>        -0.1250
     38 C28        -2.1344   -7.5563   -0.2273 C.3       1 <0>        -0.1022
     39 H2         -0.3020   -4.8486   -0.4960 H         1 <0>         0.0876
     40 H3         -2.0568   -5.0806   -0.6833 H         1 <0>         0.0843
     41 H4         -1.4375   -3.7541    0.3292 H         1 <0>         0.0807
     42 H5          0.4625   -3.6266    1.9770 H         1 <0>         0.1028
     43 H6         -1.2061   -3.1280    2.3450 H         1 <0>         0.1070
     44 H7         -1.9720   -2.9463    4.6392 H         1 <0>         0.1406
     45 H8         -1.3531   -2.5400    6.9833 H         1 <0>         0.1467
     46 H9          2.0270   -4.1308    3.7563 H         1 <0>         0.1348
     47 H10         4.1731   -2.6954    3.5272 H         1 <0>         0.0836
     48 H11         2.7401   -2.0789    4.3906 H         1 <0>         0.1138
     49 H12         4.5341   -0.3255    3.8767 H         1 <0>         0.1177
     50 H13         4.0716   -0.4517    5.5940 H         1 <0>         0.0883
     51 H14         7.2689   -2.4183    6.2830 H         1 <0>         0.0793
     52 H15         5.8359   -1.8018    7.1464 H         1 <0>         0.0994
     53 H16         5.4747   -4.1643    6.8028 H         1 <0>         0.1186
     54 H17         5.9402   -4.0430    5.0859 H         1 <0>         0.0819
     55 H18         9.0470    0.5683    3.5269 H         1 <0>         0.1087
     56 H19        10.3819   -0.4493    4.1619 H         1 <0>         0.1004
     57 H20         8.3874   -1.1028    1.9234 H         1 <0>         0.0860
     58 H21        10.1714   -1.2670    1.9031 H         1 <0>         0.0939
     59 H22         8.4640   -3.3724    2.4765 H         1 <0>         0.0849
     60 H23        10.1259   -3.2566    3.1214 H         1 <0>         0.0872
     61 H24         9.2894   -3.0340    5.2367 H         1 <0>         0.1009
     62 H25         7.6276   -3.1497    4.5917 H         1 <0>         0.0991
     63 H26        10.0814   -2.2910    6.7527 H         1 <0>         0.1390
     64 H27        10.7671   -1.0828    5.6182 H         1 <0>         0.1431
     65 H28        10.0761   -0.7280    8.5879 H         1 <0>         0.0999
     66 H29        11.5867   -0.2714    7.7342 H         1 <0>         0.1216
     67 H30         9.4742    1.5015    8.1857 H         1 <0>         0.1075
     68 H31        10.6298    1.6637    6.8289 H         1 <0>         0.1076
     69 H32         8.9619    1.1755    5.3381 H         1 <0>         0.1379
     70 H33         7.8003    1.0508    6.6897 H         1 <0>         0.1296
     71 H34        -1.2786   -7.9759   -0.7562 H         1 <0>         0.0802
     72 H35        -2.8738   -8.3382   -0.0544 H         1 <0>         0.0804
     73 H36        -2.5788   -6.7623   -0.8276 H         1 <0>         0.0799
     74 H37         8.0554   -1.1754    6.7720 H         1 <0>         0.4187
@<TRIPOS>BOND
     1    1    2 1
     2    1   39 1
     3    1   40 1
     4    1   41 1
     5    2    9 1
     6    2    3 2
     7    3    4 1
     8    3   38 1
     9    4    5 2
    10    4    6 am
    11    6    7 1
    12    6    8 1
    13    8    9 2
    14    9   10 1
    15   10   11 1
    16   10   42 1
    17   10   43 1
    18   11   16 ar
    19   11   12 ar
    20   12   13 ar
    21   12   44 1
    22   13   14 ar
    23   13   45 1
    24   14   15 ar
    25   14   37 1
    26   15   16 ar
    27   15   17 1
    28   16   46 1
    29   17   18 2
    30   17   19 am
    31   19   24 1
    32   19   20 1
    33   20   21 1
    34   20   47 1
    35   20   48 1
    36   21   22 1
    37   21   49 1
    38   21   50 1
    39   22   23 1
    40   22   25 am
    41   23   24 1
    42   23   51 1
    43   23   52 1
    44   24   53 1
    45   24   54 1
    46   25   26 2
    47   25   27 1
    48   27   31 1
    49   27   28 1
    50   27   32 1
    51   28   29 1
    52   28   55 1
    53   28   56 1
    54   29   30 1
    55   29   57 1
    56   29   58 1
    57   30   31 1
    58   30   59 1
    59   30   60 1
    60   31   61 1
    61   31   62 1
    62   32   36 1
    63   32   33 1
    64   32   74 1
    65   33   34 1
    66   33   63 1
    67   33   64 1
    68   34   35 1
    69   34   65 1
    70   34   66 1
    71   35   36 1
    72   35   67 1
    73   35   68 1
    74   36   69 1
    75   36   70 1
    76   38   71 1
    77   38   72 1
    78   38   73 1
@<TRIPOS>MOLECULE
CHEMBL596702__1
   73    77     0     0     0
SMALL
USER_CHARGES

@<TRIPOS>ATOM
      1 C1         -3.7578   -4.0243   -0.5613 C.3       1 <0>        -0.1084
      2 C2         -4.0835   -2.8292   -1.4196 C.ar      1 <0>        -0.0668
      3 C3         -4.9067   -2.9500   -2.5291 C.ar      1 <0>        -0.1997
      4 C4         -5.1653   -1.8045   -3.2769 C.ar      1 <0>         0.3659
      5 O1         -5.9651   -1.8713   -4.3711 O.3       1 <0>        -0.6932
      6 N1         -4.6280   -0.6499   -2.9159 N.ar      1 <0>        -0.3580
      7 N2         -3.8668   -0.5437   -1.8880 N.ar      1 <0>        -0.2007
      8 C5         -3.5734   -1.5745   -1.1201 C.ar      1 <0>        -0.0746
      9 C6         -2.6791   -1.3909    0.0789 C.3       1 <0>        -0.0036
     10 C7         -3.5241   -1.1606    1.3053 C.ar      1 <0>        -0.0672
     11 C8         -3.9870    0.1118    1.5952 C.ar      1 <0>        -0.0475
     12 C9         -4.7626    0.3335    2.7174 C.ar      1 <0>        -0.1520
     13 C10        -5.0819   -0.7167    3.5590 C.ar      1 <0>         0.1340
     14 C11        -4.6174   -2.0037    3.2707 C.ar      1 <0>        -0.1786
     15 C12        -3.8383   -2.2183    2.1316 C.ar      1 <0>        -0.0658
     16 C13        -4.9528   -3.1312    4.1637 C.2       1 <0>         0.5779
     17 O2         -6.1111   -3.3438    4.4654 O.2       1 <0>        -0.5118
     18 N3         -3.9748   -3.9244    4.6441 N.am      1 <0>        -0.6138
     19 C14        -2.5623   -3.6069    4.3912 C.3       1 <0>         0.0864
     20 C15        -1.8300   -3.5247    5.7363 C.3       1 <0>         0.0963
     21 N4         -2.1569   -4.7224    6.5228 N.am      1 <0>        -0.6025
     22 C16        -3.5694   -5.0399    6.7757 C.3       1 <0>         0.0690
     23 C17        -4.3015   -5.1189    5.4354 C.3       1 <0>         0.0991
     24 C18        -1.1789   -5.5155    7.0032 C.2       1 <0>         0.5130
     25 O3         -0.0166   -5.2023    6.8554 O.2       1 <0>        -0.4804
     26 C19        -1.5295   -6.7916    7.7241 C.3       1 <0>         0.0304
     27 C20        -0.2514   -7.6134    8.0245 C.3       1 <0>        -0.1211
     28 C21         0.0235   -8.3232    6.6755 C.3       1 <0>        -0.1223
     29 C22        -1.3793   -8.6873    6.1469 C.3       1 <0>        -0.1240
     30 C23        -2.3667   -7.7135    6.8136 C.3       1 <0>        -0.1477
     31 N5         -2.2575   -6.4961    8.9653 N.4       1 <0>        -0.3906
     32 C24        -2.6686   -7.7587    9.6310 C.3       1 <0>        -0.0169
     33 C25        -2.8832   -7.3291   11.1041 C.3       1 <0>        -0.1426
     34 C26        -1.7530   -6.2993   11.3322 C.3       1 <0>        -0.1403
     35 C27        -1.3696   -5.8048    9.9251 C.3       1 <0>        -0.0184
     36 F1         -5.8397   -0.4997    4.6563 F         1 <0>        -0.1317
     37 C28        -5.5024   -4.2798   -2.9135 C.3       1 <0>        -0.0808
     38 H1         -4.4518   -4.0688    0.2780 H         1 <0>         0.0605
     39 H2         -3.8474   -4.9337   -1.1556 H         1 <0>         0.0653
     40 H3         -2.7385   -3.9348   -0.1856 H         1 <0>         0.0610
     41 H4         -2.0713   -2.2848    0.2191 H         1 <0>         0.0770
     42 H5         -2.0289   -0.5308   -0.0811 H         1 <0>         0.0875
     43 H6         -3.7405    0.9351    0.9413 H         1 <0>         0.1469
     44 H7         -5.1196    1.3287    2.9378 H         1 <0>         0.1437
     45 H8         -3.4792   -3.2103    1.9008 H         1 <0>         0.1361
     46 H9         -2.1154   -4.3898    3.7785 H         1 <0>         0.0838
     47 H10        -2.4892   -2.6492    3.8758 H         1 <0>         0.1172
     48 H11        -0.7544   -3.4818    5.5652 H         1 <0>         0.1170
     49 H12        -2.1531   -2.6339    6.2749 H         1 <0>         0.0883
     50 H13        -3.6424   -5.9976    7.2911 H         1 <0>         0.0777
     51 H14        -4.0163   -4.2569    7.3884 H         1 <0>         0.0984
     52 H15        -5.3768   -5.1596    5.6095 H         1 <0>         0.1176
     53 H16        -3.9813   -6.0120    4.8988 H         1 <0>         0.0807
     54 H17         0.5765   -6.9563    8.2910 H         1 <0>         0.1083
     55 H18        -0.4371   -8.3420    8.8136 H         1 <0>         0.0989
     56 H19         0.5279   -7.6475    5.9847 H         1 <0>         0.0865
     57 H20         0.6176   -9.2234    6.8323 H         1 <0>         0.0927
     58 H21        -1.4124   -8.5693    5.0638 H         1 <0>         0.0863
     59 H22        -1.6259   -9.7136    6.4188 H         1 <0>         0.0861
     60 H23        -3.0926   -8.2673    7.4091 H         1 <0>         0.0999
     61 H24        -2.8790   -7.1230    6.0541 H         1 <0>         0.1019
     62 H25        -3.5965   -8.1358    9.2012 H         1 <0>         0.1389
     63 H26        -1.8785   -8.5062    9.5595 H         1 <0>         0.1425
     64 H27        -3.8606   -6.8637   11.2317 H         1 <0>         0.0997
     65 H28        -2.7700   -8.1809   11.7747 H         1 <0>         0.1203
     66 H29        -2.1143   -5.4694   11.9394 H         1 <0>         0.1067
     67 H30        -0.8980   -6.7759   11.8117 H         1 <0>         0.1065
     68 H31        -0.3295   -6.0539    9.7146 H         1 <0>         0.1377
     69 H32        -1.5170   -4.7269    9.8573 H         1 <0>         0.1300
     70 H33        -6.4661   -4.4028   -2.4193 H         1 <0>         0.0521
     71 H34        -5.6409   -4.3172   -3.9941 H         1 <0>         0.0673
     72 H35        -4.8311   -5.0814   -2.6053 H         1 <0>         0.0482
     73 H36        -3.0666   -5.9266    8.7675 H         1 <0>         0.4197
@<TRIPOS>BOND
     1    1    2 1
     2    1   38 1
     3    1   39 1
     4    1   40 1
     5    2    8 ar
     6    2    3 ar
     7    3    4 ar
     8    3   37 1
     9    4    5 1
    10    4    6 ar
    11    6    7 ar
    12    7    8 ar
    13    8    9 1
    14    9   10 1
    15    9   41 1
    16    9   42 1
    17   10   15 ar
    18   10   11 ar
    19   11   12 ar
    20   11   43 1
    21   12   13 ar
    22   12   44 1
    23   13   14 ar
    24   13   36 1
    25   14   15 ar
    26   14   16 1
    27   15   45 1
    28   16   17 2
    29   16   18 am
    30   18   23 1
    31   18   19 1
    32   19   20 1
    33   19   46 1
    34   19   47 1
    35   20   21 1
    36   20   48 1
    37   20   49 1
    38   21   22 1
    39   21   24 am
    40   22   23 1
    41   22   50 1
    42   22   51 1
    43   23   52 1
    44   23   53 1
    45   24   25 2
    46   24   26 1
    47   26   30 1
    48   26   27 1
    49   26   31 1
    50   27   28 1
    51   27   54 1
    52   27   55 1
    53   28   29 1
    54   28   56 1
    55   28   57 1
    56   29   30 1
    57   29   58 1
    58   29   59 1
    59   30   60 1
    60   30   61 1
    61   31   35 1
    62   31   32 1
    63   31   73 1
    64   32   33 1
    65   32   62 1
    66   32   63 1
    67   33   34 1
    68   33   64 1
    69   33   65 1
    70   34   35 1
    71   34   66 1
    72   34   67 1
    73   35   68 1
    74   35   69 1
    75   37   70 1
    76   37   71 1
    77   37   72 1
@<TRIPOS>MOLECULE
CHEMBL598752
   73    77     0     0     0
SMALL
USER_CHARGES

@<TRIPOS>ATOM
      1 C1         -2.2944   -3.8835    2.0932 C.3       1 <0>        -0.1257
      2 C2         -2.2457   -4.5756    3.4309 C.2       1 <0>        -0.0420
      3 C3         -2.8133   -5.8060    3.6040 C.2       1 <0>        -0.1575
      4 C4         -2.7301   -6.3955    4.8839 C.2       1 <0>         0.4828
      5 O1         -3.2210   -7.4938    5.0901 O.2       1 <0>        -0.5297
      6 N1         -2.1030   -5.7335    5.8750 N.am      1 <0>        -0.4485
      7 H1         -2.0470   -6.1403    6.7537 H         1 <0>         0.4403
      8 N2         -1.5772   -4.5776    5.6858 N.2       1 <0>        -0.2108
      9 C5         -1.6103   -3.9744    4.5301 C.2       1 <0>         0.0685
     10 C6         -0.9674   -2.6204    4.3741 C.3       1 <0>        -0.0124
     11 C7         -0.3595   -2.1987    5.6869 C.ar      1 <0>        -0.0873
     12 C8         -1.1164   -1.4842    6.6000 C.ar      1 <0>        -0.0515
     13 C9         -0.5683   -1.0927    7.8067 C.ar      1 <0>        -0.1537
     14 C10         0.7425   -1.4136    8.1102 C.ar      1 <0>         0.1501
     15 C11         1.5113   -2.1354    7.1920 C.ar      1 <0>        -0.1649
     16 C12         0.9466   -2.5305    5.9773 C.ar      1 <0>        -0.0489
     17 C13         2.9119   -2.4823    7.5071 C.2       1 <0>         0.5663
     18 O2          3.1901   -2.9658    8.5873 O.2       1 <0>        -0.5181
     19 N3          3.8816   -2.2627    6.5972 N.am      1 <0>        -0.6067
     20 C14         3.5822   -1.5657    5.3385 C.3       1 <0>         0.0887
     21 C15         4.5252   -0.3632    5.2079 C.3       1 <0>         0.0952
     22 N4          5.9009   -0.8161    5.4568 N.am      1 <0>        -0.6002
     23 C16         6.2003   -1.5131    6.7155 C.3       1 <0>         0.0877
     24 C17         5.2585   -2.7106    6.8486 C.3       1 <0>         0.0952
     25 C18         6.8706   -0.5965    4.5469 C.2       1 <0>         0.5215
     26 O3          6.6238    0.0266    3.5361 O.2       1 <0>        -0.5317
     27 C19         8.2615   -1.1252    4.7855 C.3       1 <0>         0.1646
     28 C20         9.2375   -0.5316    3.7487 C.3       1 <0>        -0.1301
     29 C21        10.2094   -1.6954    3.4322 C.3       1 <0>        -0.1216
     30 C22         9.2764   -2.9317    3.4400 C.3       1 <0>        -0.1226
     31 C23         8.2862   -2.6512    4.5892 C.3       1 <0>        -0.1206
     32 N5          8.7010   -0.7864    6.1413 N.pl3     1 <0>        -0.7351
     33 C24         8.7558    0.5498    6.5443 C.ar      1 <0>         0.2055
     34 C25         8.4042    1.5594    5.6573 C.ar      1 <0>        -0.1968
     35 C26         8.4590    2.8795    6.0592 C.ar      1 <0>        -0.0744
     36 C27         8.8637    3.1969    7.3428 C.ar      1 <0>        -0.1715
     37 C28         9.2144    2.1943    8.2284 C.ar      1 <0>        -0.0757
     38 C29         9.1564    0.8718    7.8348 C.ar      1 <0>        -0.1881
     39 F1          1.2784   -1.0305    9.2898 F         1 <0>        -0.1236
     40 C30        -3.5059   -6.5106    2.4660 C.3       1 <0>        -0.1001
     41 H2         -1.4213   -4.1669    1.5054 H         1 <0>         0.0886
     42 H3         -3.2002   -4.1792    1.5639 H         1 <0>         0.0830
     43 H4         -2.2970   -2.8038    2.2426 H         1 <0>         0.0815
     44 H5         -0.1886   -2.6735    3.6134 H         1 <0>         0.1035
     45 H6         -1.7210   -1.8930    4.0723 H         1 <0>         0.1058
     46 H7         -2.1404   -1.2311    6.3678 H         1 <0>         0.1374
     47 H8         -1.1643   -0.5350    8.5139 H         1 <0>         0.1440
     48 H9          1.5335   -3.0914    5.2649 H         1 <0>         0.1354
     49 H10         3.7359   -2.2439    4.4992 H         1 <0>         0.0781
     50 H11         2.5483   -1.2204    5.3484 H         1 <0>         0.1037
     51 H12         4.4527    0.0510    4.2023 H         1 <0>         0.1079
     52 H13         4.2522    0.3970    5.9399 H         1 <0>         0.0738
     53 H14         7.2342   -1.8583    6.7056 H         1 <0>         0.1116
     54 H15         6.0466   -0.8348    7.5548 H         1 <0>         0.0750
     55 H16         5.3315   -3.1214    7.8556 H         1 <0>         0.1069
     56 H17         5.5343   -3.4723    6.1193 H         1 <0>         0.0740
     57 H18         8.7009   -0.2277    2.8499 H         1 <0>         0.0943
     58 H19         9.7794    0.3128    4.1746 H         1 <0>         0.0824
     59 H20        10.6656   -1.5618    2.4513 H         1 <0>         0.0737
     60 H21        10.9725   -1.7825    4.2057 H         1 <0>         0.0694
     61 H22         8.7460   -3.0153    2.4914 H         1 <0>         0.0723
     62 H23         9.8466   -3.8387    3.6406 H         1 <0>         0.0740
     63 H24         8.6261   -3.1396    5.5024 H         1 <0>         0.0821
     64 H25         7.2922   -3.0093    4.3214 H         1 <0>         0.0772
     65 H26         8.9540   -1.4901    6.7592 H         1 <0>         0.4027
     66 H27         8.0887    1.3122    4.6544 H         1 <0>         0.1313
     67 H28         8.1857    3.6649    5.3701 H         1 <0>         0.1190
     68 H29         8.9063    4.2301    7.6543 H         1 <0>         0.1177
     69 H30         9.5301    2.4456    9.2302 H         1 <0>         0.1208
     70 H31         9.4261    0.0891    8.5283 H         1 <0>         0.1195
     71 H32        -2.7856   -7.1269    1.9280 H         1 <0>         0.0791
     72 H33        -4.3017   -7.1424    2.8605 H         1 <0>         0.0788
     73 H34        -3.9314   -5.7721    1.7865 H         1 <0>         0.0788
@<TRIPOS>BOND
     1    1    2 1
     2    1   41 1
     3    1   42 1
     4    1   43 1
     5    2    9 1
     6    2    3 2
     7    3    4 1
     8    3   40 1
     9    4    5 2
    10    4    6 am
    11    6    7 1
    12    6    8 1
    13    8    9 2
    14    9   10 1
    15   10   11 1
    16   10   44 1
    17   10   45 1
    18   11   16 ar
    19   11   12 ar
    20   12   13 ar
    21   12   46 1
    22   13   14 ar
    23   13   47 1
    24   14   15 ar
    25   14   39 1
    26   15   16 ar
    27   15   17 1
    28   16   48 1
    29   17   18 2
    30   17   19 am
    31   19   24 1
    32   19   20 1
    33   20   21 1
    34   20   49 1
    35   20   50 1
    36   21   22 1
    37   21   51 1
    38   21   52 1
    39   22   23 1
    40   22   25 am
    41   23   24 1
    42   23   53 1
    43   23   54 1
    44   24   55 1
    45   24   56 1
    46   25   26 2
    47   25   27 1
    48   27   31 1
    49   27   28 1
    50   27   32 1
    51   28   29 1
    52   28   57 1
    53   28   58 1
    54   29   30 1
    55   29   59 1
    56   29   60 1
    57   30   31 1
    58   30   61 1
    59   30   62 1
    60   31   63 1
    61   31   64 1
    62   32   33 1
    63   32   65 1
    64   33   38 ar
    65   33   34 ar
    66   34   35 ar
    67   34   66 1
    68   35   36 ar
    69   35   67 1
    70   36   37 ar
    71   36   68 1
    72   37   38 ar
    73   37   69 1
    74   38   70 1
    75   40   71 1
    76   40   72 1
    77   40   73 1
@<TRIPOS>MOLECULE
CHEMBL598752__1
   72    76     0     0     0
SMALL
USER_CHARGES

@<TRIPOS>ATOM
      1 C1         -5.2290   -2.5649    0.5473 C.3       1 <0>        -0.1107
      2 C2         -5.5849   -1.2316   -0.0584 C.ar      1 <0>        -0.0640
      3 C3         -6.6439   -1.1102   -0.9455 C.ar      1 <0>        -0.2016
      4 C4         -6.9164    0.1517   -1.4667 C.ar      1 <0>         0.3656
      5 O1         -7.9426    0.3219   -2.3381 O.3       1 <0>        -0.6995
      6 N1         -6.1705    1.1848   -1.1084 N.ar      1 <0>        -0.3612
      7 N2         -5.1914    1.0669   -0.2870 N.ar      1 <0>        -0.2026
      8 C5         -4.8663   -0.0883    0.2591 C.ar      1 <0>        -0.0688
      9 C6         -3.7106   -0.1678    1.2230 C.3       1 <0>        -0.0035
     10 C7         -4.2239   -0.0417    2.6342 C.ar      1 <0>        -0.0713
     11 C8         -4.4455    1.2121    3.1785 C.ar      1 <0>        -0.0526
     12 C9         -4.9160    1.3385    4.4717 C.ar      1 <0>        -0.1544
     13 C10        -5.1694    0.2107    5.2315 C.ar      1 <0>         0.1334
     14 C11        -4.9478   -1.0579    4.6867 C.ar      1 <0>        -0.1701
     15 C12        -4.4767   -1.1751    3.3771 C.ar      1 <0>        -0.0639
     16 C13        -5.2150   -2.2678    5.4904 C.2       1 <0>         0.5722
     17 O2         -6.2950   -2.4133    6.0292 O.2       1 <0>        -0.5216
     18 N3         -4.2616   -3.2106    5.6264 N.am      1 <0>        -0.6078
     19 C14        -2.9140   -2.9957    5.0809 C.3       1 <0>         0.0894
     20 C15        -1.8932   -3.1762    6.2112 C.3       1 <0>         0.0959
     21 N4         -2.1823   -4.4374    6.9081 N.am      1 <0>        -0.5990
     22 C16        -3.5299   -4.6522    7.4537 C.3       1 <0>         0.0887
     23 C17        -4.5491   -4.4694    6.3283 C.3       1 <0>         0.0951
     24 C18        -1.2289   -5.3802    7.0442 C.2       1 <0>         0.5188
     25 O3         -0.1022   -5.1645    6.6504 O.2       1 <0>        -0.5332
     26 C19        -1.5627   -6.7024    7.6856 C.3       1 <0>         0.1649
     27 C20        -0.2714   -7.5067    7.9412 C.3       1 <0>        -0.1310
     28 C21        -0.6750   -8.9744    7.6548 C.3       1 <0>        -0.1210
     29 C22        -1.6285   -8.8361    6.4420 C.3       1 <0>        -0.1223
     30 C23        -2.4256   -7.5477    6.7324 C.3       1 <0>        -0.1215
     31 N5         -2.2759   -6.4823    8.9462 N.pl3     1 <0>        -0.7341
     32 C24        -1.6512   -5.7988    9.9919 C.ar      1 <0>         0.2076
     33 C25        -0.3586   -5.3155    9.8336 C.ar      1 <0>        -0.1963
     34 C26         0.2560   -4.6397   10.8694 C.ar      1 <0>        -0.0747
     35 C27        -0.4139   -4.4443   12.0633 C.ar      1 <0>        -0.1734
     36 C28        -1.7008   -4.9242   12.2243 C.ar      1 <0>        -0.0764
     37 C29        -2.3233   -5.5958   11.1905 C.ar      1 <0>        -0.1890
     38 F1         -5.6290    0.3344    6.4959 F         1 <0>        -0.1312
     39 C30        -7.4737   -2.3069   -1.3335 C.3       1 <0>        -0.0801
     40 H1         -5.7174   -2.6655    1.5166 H         1 <0>         0.0633
     41 H2         -5.5638   -3.3649   -0.1130 H         1 <0>         0.0650
     42 H3         -4.1486   -2.6285    0.6764 H         1 <0>         0.0629
     43 H4         -3.2041   -1.1257    1.1048 H         1 <0>         0.0777
     44 H5         -3.0099    0.6415    1.0175 H         1 <0>         0.0861
     45 H6         -4.2492    2.0957    2.5894 H         1 <0>         0.1438
     46 H7         -5.0859    2.3196    4.8901 H         1 <0>         0.1410
     47 H8         -4.3068   -2.1518    2.9487 H         1 <0>         0.1362
     48 H9         -2.7185   -3.7221    4.2920 H         1 <0>         0.0785
     49 H10        -2.8391   -1.9856    4.6782 H         1 <0>         0.1061
     50 H11        -0.8871   -3.2116    5.7933 H         1 <0>         0.1073
     51 H12        -1.9720   -2.3448    6.9116 H         1 <0>         0.0737
     52 H13        -3.6048   -5.6624    7.8564 H         1 <0>         0.1080
     53 H14        -3.7254   -3.9259    8.2425 H         1 <0>         0.0744
     54 H15        -5.5539   -4.4323    6.7492 H         1 <0>         0.1060
     55 H16        -4.4728   -5.3031    5.6303 H         1 <0>         0.0733
     56 H17         0.5176   -7.1881    7.2600 H         1 <0>         0.0948
     57 H18         0.0493   -7.3944    8.9769 H         1 <0>         0.0837
     58 H19         0.1987   -9.5713    7.3932 H         1 <0>         0.0724
     59 H20        -1.1968   -9.4052    8.5093 H         1 <0>         0.0684
     60 H21        -1.0587   -8.7323    5.5187 H         1 <0>         0.0726
     61 H22        -2.2983   -9.6941    6.3837 H         1 <0>         0.0733
     62 H23        -3.3747   -7.7949    7.2080 H         1 <0>         0.0819
     63 H24        -2.6029   -7.0016    5.8059 H         1 <0>         0.0792
     64 H25        -3.1819   -6.8113    9.0547 H         1 <0>         0.4024
     65 H26         0.1654   -5.4683    8.9016 H         1 <0>         0.1326
     66 H27         1.2610   -4.2636   10.7470 H         1 <0>         0.1187
     67 H28         0.0693   -3.9161   12.8720 H         1 <0>         0.1166
     68 H29        -2.2211   -4.7699   13.1580 H         1 <0>         0.1197
     69 H30        -3.3301   -5.9664   11.3153 H         1 <0>         0.1192
     70 H31        -8.3099   -2.4089   -0.6418 H         1 <0>         0.0518
     71 H32        -7.8540   -2.1725   -2.3461 H         1 <0>         0.0656
     72 H33        -6.8572   -3.2049   -1.2931 H         1 <0>         0.0486
@<TRIPOS>BOND
     1    1    2 1
     2    1   40 1
     3    1   41 1
     4    1   42 1
     5    2    8 ar
     6    2    3 ar
     7    3    4 ar
     8    3   39 1
     9    4    5 1
    10    4    6 ar
    11    6    7 ar
    12    7    8 ar
    13    8    9 1
    14    9   10 1
    15    9   43 1
    16    9   44 1
    17   10   15 ar
    18   10   11 ar
    19   11   12 ar
    20   11   45 1
    21   12   13 ar
    22   12   46 1
    23   13   14 ar
    24   13   38 1
    25   14   15 ar
    26   14   16 1
    27   15   47 1
    28   16   17 2
    29   16   18 am
    30   18   23 1
    31   18   19 1
    32   19   20 1
    33   19   48 1
    34   19   49 1
    35   20   21 1
    36   20   50 1
    37   20   51 1
    38   21   22 1
    39   21   24 am
    40   22   23 1
    41   22   52 1
    42   22   53 1
    43   23   54 1
    44   23   55 1
    45   24   25 2
    46   24   26 1
    47   26   30 1
    48   26   27 1
    49   26   31 1
    50   27   28 1
    51   27   56 1
    52   27   57 1
    53   28   29 1
    54   28   58 1
    55   28   59 1
    56   29   30 1
    57   29   60 1
    58   29   61 1
    59   30   62 1
    60   30   63 1
    61   31   32 1
    62   31   64 1
    63   32   37 ar
    64   32   33 ar
    65   33   34 ar
    66   33   65 1
    67   34   35 ar
    68   34   66 1
    69   35   36 ar
    70   35   67 1
    71   36   37 ar
    72   36   68 1
    73   37   69 1
    74   39   70 1
    75   39   71 1
    76   39   72 1
@<TRIPOS>MOLECULE
CHEMBL196507
   41    44     0     0     0
SMALL
USER_CHARGES

@<TRIPOS>ATOM
      1 C1          0.8674    1.3909   -0.1193 C.ar      1 <0>        -0.0875
      2 C2          2.1264    1.9668   -0.2320 C.ar      1 <0>        -0.1115
      3 C3          3.2540    1.1805   -0.3213 C.ar      1 <0>        -0.0547
      4 C4          3.1241   -0.2075   -0.2973 C.ar      1 <0>        -0.1262
      5 C5          1.8411   -0.7897   -0.1820 C.ar      1 <0>        -0.0592
      6 C6          0.7163    0.0327   -0.0937 C.ar      1 <0>        -0.0979
      7 C7          1.7347   -2.2486   -0.1598 C.2       1 <0>         0.1375
      8 N1          2.8057   -2.9800   -0.2448 N.2       1 <0>        -0.2165
      9 N2          4.0843   -2.4336   -0.3593 N.am      1 <0>        -0.5340
     10 H1          4.8482   -3.0283   -0.4193 H         1 <0>         0.4366
     11 C8          4.2863   -1.0997   -0.3891 C.2       1 <0>         0.5279
     12 O1          5.4117   -0.6446   -0.4901 O.2       1 <0>        -0.5221
     13 C9          0.3829   -2.9036   -0.0379 C.3       1 <0>        -0.0172
     14 C10         0.5486   -4.4015   -0.0388 C.ar      1 <0>        -0.0575
     15 C11         0.5278   -5.0981   -1.2334 C.ar      1 <0>        -0.1175
     16 C12         0.6799   -6.4723   -1.2385 C.ar      1 <0>        -0.0973
     17 C13         0.8532   -7.1539   -0.0496 C.ar      1 <0>        -0.1187
     18 C14         0.8745   -6.4574    1.1515 C.ar      1 <0>         0.1471
     19 C15         0.7267   -5.0764    1.1527 C.ar      1 <0>        -0.1295
     20 N3          1.0494   -7.1449    2.3576 N.am      1 <0>        -0.6716
     21 C16         1.8216   -8.2488    2.3982 C.2       1 <0>         0.5434
     22 O2          2.4411   -8.5920    1.4136 O.2       1 <0>        -0.5166
     23 C17         1.9152   -9.0566    3.6669 C.3       1 <0>        -0.1995
     24 C18         3.2513   -9.0489    4.4123 C.3       1 <0>        -0.1512
     25 C19         2.8083  -10.2988    3.6492 C.3       1 <0>        -0.1443
     26 H2         -0.0037    2.0251   -0.0463 H         1 <0>         0.1365
     27 H3          2.2222    3.0424   -0.2502 H         1 <0>         0.1373
     28 H4          4.2298    1.6350   -0.4095 H         1 <0>         0.1433
     29 H5         -0.2684   -0.4022   -0.0060 H         1 <0>         0.1419
     30 H6         -0.0898   -2.5909    0.8931 H         1 <0>         0.1055
     31 H7         -0.2420   -2.6067   -0.8802 H         1 <0>         0.1075
     32 H8          0.3921   -4.5675   -2.1642 H         1 <0>         0.1217
     33 H9          0.6628   -7.0134   -2.1730 H         1 <0>         0.1258
     34 H10         0.9716   -8.2273   -0.0541 H         1 <0>         0.1322
     35 H11         0.7470   -4.5314    2.0849 H         1 <0>         0.1229
     36 H12         0.6149   -6.8270    3.1645 H         1 <0>         0.4117
     37 H13         1.0051   -9.0996    4.2651 H         1 <0>         0.1279
     38 H14         4.0626   -8.4595    3.9851 H         1 <0>         0.1004
     39 H15         3.2204   -9.0867    5.5012 H         1 <0>         0.1075
     40 H16         2.4859  -11.1589    4.2361 H         1 <0>         0.1065
     41 H17         3.3281  -10.5317    2.7199 H         1 <0>         0.1094
@<TRIPOS>BOND
     1    1    6 ar
     2    1    2 ar
     3    1   26 1
     4    2    3 ar
     5    2   27 1
     6    3    4 ar
     7    3   28 1
     8    4   11 1
     9    4    5 ar
    10    5    6 ar
    11    5    7 1
    12    6   29 1
    13    7    8 2
    14    7   13 1
    15    8    9 1
    16    9   10 1
    17    9   11 am
    18   11   12 2
    19   13   14 1
    20   13   30 1
    21   13   31 1
    22   14   19 ar
    23   14   15 ar
    24   15   16 ar
    25   15   32 1
    26   16   17 ar
    27   16   33 1
    28   17   18 ar
    29   17   34 1
    30   18   19 ar
    31   18   20 1
    32   19   35 1
    33   20   21 am
    34   20   36 1
    35   21   22 2
    36   21   23 1
    37   23   25 1
    38   23   24 1
    39   23   37 1
    40   24   25 1
    41   24   38 1
    42   24   39 1
    43   25   40 1
    44   25   41 1
@<TRIPOS>MOLECULE
CHEMBL344963
   43    46     0     0     0
SMALL
USER_CHARGES

@<TRIPOS>ATOM
      1 C1         -0.0178    1.4648    0.0101 C.3       1 <0>        -0.0537
      2 N1          0.0021   -0.0041    0.0020 N.4       1 <0>        -0.3865
      3 C2         -1.3761   -0.5125    0.0124 C.3       1 <0>        -0.0478
      4 C3          0.6897   -0.4778   -1.2066 C.3       1 <0>         0.0423
      5 C4          2.1367   -0.0597   -1.1578 C.ar      1 <0>        -0.1589
      6 C5          2.5199    1.1586   -1.6899 C.ar      1 <0>        -0.0891
      7 C6          3.8430    1.5471   -1.6488 C.ar      1 <0>        -0.1042
      8 C7          4.7957    0.7083   -1.0686 C.ar      1 <0>         0.0116
      9 C8          4.4024   -0.5192   -0.5333 C.ar      1 <0>        -0.0920
     10 C9          3.0752   -0.8934   -0.5761 C.ar      1 <0>        -0.0853
     11 C10         6.2156    1.1181   -1.0216 C.2       1 <0>         0.1218
     12 C11         7.2657    0.3279   -1.3324 C.2       1 <0>        -0.1531
     13 C12         8.4093    1.1163   -1.1495 C.ar      1 <0>        -0.0998
     14 C13         9.7196    0.6845   -1.3616 C.ar      1 <0>        -0.1004
     15 C14        10.7356    1.6066   -1.1288 C.ar      1 <0>        -0.0619
     16 C15        10.3965    2.8851   -0.7054 C.ar      1 <0>        -0.0998
     17 C16         9.0874    3.2883   -0.5021 C.ar      1 <0>        -0.0895
     18 C17         8.0495    2.3906   -0.7258 C.ar      1 <0>         0.1072
     19 N2          6.6745    2.3751   -0.6572 N.pl3     1 <0>        -0.5763
     20 H1          6.1160    3.1232   -0.3937 H         1 <0>         0.4224
     21 C18         9.9427   -0.6972   -1.8115 C.2       1 <0>         0.5660
     22 O1         11.0751   -1.0976   -2.0031 O.2       1 <0>        -0.5257
     23 N3          8.8927   -1.5234   -2.0123 N.am      1 <0>        -0.7210
     24 C19         7.5038   -1.0892   -1.7936 C.3       1 <0>         0.1912
     25 H2          1.0047    1.8421    0.0024 H         1 <0>         0.1225
     26 H3         -0.5450    1.8259   -0.8730 H         1 <0>         0.1227
     27 H4         -0.5280    1.8163    0.9069 H         1 <0>         0.1245
     28 H5         -1.9033   -0.1515   -0.8706 H         1 <0>         0.1228
     29 H6         -1.3613   -1.6024    0.0065 H         1 <0>         0.1244
     30 H7         -1.8863   -0.1610    0.9092 H         1 <0>         0.1251
     31 H8          0.6270   -1.5648   -1.2578 H         1 <0>         0.1387
     32 H9          0.2158   -0.0447   -2.0875 H         1 <0>         0.1368
     33 H10         1.7817    1.8067   -2.1386 H         1 <0>         0.1360
     34 H11         4.1410    2.4981   -2.0651 H         1 <0>         0.1365
     35 H12         5.1348   -1.1728   -0.0829 H         1 <0>         0.1422
     36 H13         2.7689   -1.8411   -0.1583 H         1 <0>         0.1384
     37 H14        11.7700    1.3326   -1.2746 H         1 <0>         0.1442
     38 H15        11.1892    3.5965   -0.5265 H         1 <0>         0.1392
     39 H16         8.8740    4.2941   -0.1717 H         1 <0>         0.1331
     40 H17         9.0596   -2.4316   -2.3096 H         1 <0>         0.4170
     41 H18         7.0590   -1.7571   -1.0560 H         1 <0>         0.0749
     42 H19         6.9625   -1.2287   -2.7293 H         1 <0>         0.0769
     43 H20         0.4901   -0.3383    0.8195 H         1 <0>         0.4266
@<TRIPOS>BOND
     1    1    2 1
     2    1   25 1
     3    1   26 1
     4    1   27 1
     5    2    3 1
     6    2    4 1
     7    2   43 1
     8    3   28 1
     9    3   29 1
    10    3   30 1
    11    4    5 1
    12    4   31 1
    13    4   32 1
    14    5   10 ar
    15    5    6 ar
    16    6    7 ar
    17    6   33 1
    18    7    8 ar
    19    7   34 1
    20    8    9 ar
    21    8   11 1
    22    9   10 ar
    23    9   35 1
    24   10   36 1
    25   11   19 1
    26   11   12 2
    27   12   24 1
    28   12   13 1
    29   13   18 ar
    30   13   14 ar
    31   14   15 ar
    32   14   21 1
    33   15   16 ar
    34   15   37 1
    35   16   17 ar
    36   16   38 1
    37   17   18 ar
    38   17   39 1
    39   18   19 1
    40   19   20 1
    41   21   22 2
    42   21   23 am
    43   23   24 1
    44   23   40 1
    45   24   41 1
    46   24   42 1
@<TRIPOS>MOLECULE
CHEMBL1091710
   27    29     0     0     0
SMALL
USER_CHARGES

@<TRIPOS>ATOM
      1 C1         -0.0168    1.3884    0.0097 C.ar      1 <0>        -0.0903
      2 C2          1.1594    2.1065    0.0023 C.ar      1 <0>        -0.1406
      3 C3          2.3777    1.4357   -0.0138 C.ar      1 <0>         0.1734
      4 C4          2.4025    0.0345   -0.0246 C.ar      1 <0>        -0.1095
      5 C5          1.2024   -0.6863   -0.0158 C.ar      1 <0>        -0.0913
      6 C6          0.0021   -0.0041    0.0020 C.ar      1 <0>         0.0813
      7 O1         -1.1683   -0.6959    0.0119 O.3       1 <0>        -0.4940
      8 C7          3.6941   -0.6880   -0.0476 C.2       1 <0>         0.0186
      9 C8          4.8180    0.0439   -0.0772 C.2       1 <0>        -0.1704
     10 C9          4.7330    1.4670   -0.0427 C.2       1 <0>         0.5414
     11 O2          5.7680    2.1107   -0.0358 O.2       1 <0>        -0.5318
     12 N1          3.5710    2.1284   -0.0175 N.am      1 <0>        -0.6268
     13 H1          3.5670    3.0983   -0.0018 H         1 <0>         0.4201
     14 C10         6.2230   -0.5003   -0.1735 C.3       1 <0>        -0.0263
     15 S1          6.2599   -2.2441    0.3238 S.3       1 <0>        -0.2420
     16 C11         4.8068   -2.9058   -0.5533 C.3       1 <0>        -0.0852
     17 C12         3.5802   -2.1841   -0.0141 C.3       1 <0>        -0.0944
     18 H2         -0.9621    1.9105    0.0260 H         1 <0>         0.1411
     19 H3          1.1353    3.1862    0.0086 H         1 <0>         0.1419
     20 H4          1.2154   -1.7662   -0.0225 H         1 <0>         0.1463
     21 H5         -1.5172   -0.8913   -0.8685 H         1 <0>         0.3926
     22 H6          6.5748   -0.4108   -1.2013 H         1 <0>         0.1031
     23 H7          6.8783    0.0752    0.4804 H         1 <0>         0.1277
     24 H8          4.9044   -2.7215   -1.6232 H         1 <0>         0.0915
     25 H9          4.7180   -3.9763   -0.3678 H         1 <0>         0.1198
     26 H10         3.4173   -2.4977    1.0171 H         1 <0>         0.1055
     27 H11         2.7140   -2.4805   -0.6057 H         1 <0>         0.0983
@<TRIPOS>BOND
     1    1    6 ar
     2    1    2 ar
     3    1   18 1
     4    2    3 ar
     5    2   19 1
     6    3   12 1
     7    3    4 ar
     8    4    5 ar
     9    4    8 1
    10    5    6 ar
    11    5   20 1
    12    6    7 1
    13    7   21 1
    14    8   17 1
    15    8    9 2
    16    9   10 1
    17    9   14 1
    18   10   11 2
    19   10   12 am
    20   12   13 1
    21   14   15 1
    22   14   22 1
    23   14   23 1
    24   15   16 1
    25   16   17 1
    26   16   24 1
    27   16   25 1
    28   17   26 1
    29   17   27 1
@<TRIPOS>MOLECULE
CHEMBL83971
   51    54     0     0     0
SMALL
USER_CHARGES

@<TRIPOS>ATOM
      1 C1         -0.0178    1.4608    0.0101 C.3       1 <0>         0.0880
      2 N1          0.0021   -0.0041    0.0020 N.pl3     1 <0>        -0.6180
      3 C2          0.0241   -0.7433    1.2666 C.3       1 <0>         0.1633
      4 C3         -1.3889   -1.0161    1.7137 C.ar      1 <0>        -0.1499
      5 C4         -2.0464   -0.1041    2.5186 C.ar      1 <0>        -0.0656
      6 C5         -3.3416   -0.3521    2.9301 C.ar      1 <0>        -0.1539
      7 C6         -3.9827   -1.5171    2.5348 C.ar      1 <0>         0.1322
      8 C7         -3.3210   -2.4304    1.7269 C.ar      1 <0>        -0.2072
      9 C8         -2.0277   -2.1753    1.3138 C.ar      1 <0>        -0.0623
     10 O1         -5.2567   -1.7636    2.9387 O.3       1 <0>        -0.3180
     11 C9         -5.8541   -2.9830    2.4934 C.3       1 <0>         0.0261
     12 C10         0.0000   -0.6940   -1.2081 C.ar      1 <0>         0.2429
     13 C11         0.0131   -2.0853   -1.2141 C.ar      1 <0>        -0.2039
     14 C12         0.0111   -2.7702   -2.4088 C.ar      1 <0>        -0.0105
     15 C13        -0.0046   -2.0666   -3.6156 C.ar      1 <0>        -0.1037
     16 C14        -0.0182   -0.6697   -3.6063 C.ar      1 <0>        -0.0457
     17 C15        -0.0209    0.0095   -2.4083 C.ar      1 <0>        -0.2002
     18 C16        -0.0063   -2.7981   -4.8986 C.2       1 <0>         0.3505
     19 N2         -0.0155   -2.2168   -6.1367 N.pl3     1 <0>        -0.5986
     20 H1         -0.0220   -1.2657   -6.3273 H         1 <0>         0.4234
     21 C17        -0.0138   -3.2415   -7.0652 C.ar      1 <0>         0.0343
     22 C18        -0.0194   -3.2812   -8.4511 C.ar      1 <0>        -0.0778
     23 C19        -0.0147   -4.4949   -9.1121 C.ar      1 <0>        -0.1187
     24 C20        -0.0049   -5.6826   -8.4051 C.ar      1 <0>        -0.0852
     25 C21         0.0004   -5.6728   -7.0122 C.ar      1 <0>        -0.0961
     26 C22        -0.0034   -4.4379   -6.3268 C.ar      1 <0>         0.1118
     27 N3          0.0065   -4.1054   -5.0238 N.2       1 <0>        -0.4669
     28 C23         0.0098   -6.9398   -6.2603 C.2       1 <0>         0.5583
     29 O2          0.0144   -6.9252   -5.0443 O.2       1 <0>        -0.5119
     30 N4          0.0134   -8.1149   -6.9202 N.am      1 <0>        -0.8563
     31 H2          1.0048    1.8381    0.0023 H         1 <0>         0.0537
     32 H3         -0.5450    1.8219   -0.8730 H         1 <0>         0.0702
     33 H4         -0.5280    1.8123    0.9069 H         1 <0>         0.0691
     34 H5          0.5496   -1.6879    1.1262 H         1 <0>         0.0874
     35 H6          0.5371   -0.1514    2.0246 H         1 <0>         0.0869
     36 H7         -1.5468    0.8027    2.8260 H         1 <0>         0.1270
     37 H8         -3.8545    0.3602    3.5594 H         1 <0>         0.1308
     38 H9         -3.8180   -3.3381    1.4179 H         1 <0>         0.1293
     39 H10        -1.5137   -2.8839    0.6812 H         1 <0>         0.1276
     40 H11        -6.8683   -3.0553    2.8862 H         1 <0>         0.1016
     41 H12        -5.8846   -2.9959    1.4039 H         1 <0>         0.0565
     42 H13        -5.2650   -3.8277    2.8505 H         1 <0>         0.0570
     43 H14         0.0252   -2.6286   -0.2808 H         1 <0>         0.1308
     44 H15         0.0219   -3.8501   -2.4127 H         1 <0>         0.1410
     45 H16        -0.0299   -0.1230   -4.5377 H         1 <0>         0.1182
     46 H17        -0.0352    1.0893   -2.4005 H         1 <0>         0.1294
     47 H18        -0.0278   -2.3607   -9.0160 H         1 <0>         0.1283
     48 H19        -0.0191   -4.5155  -10.1918 H         1 <0>         0.1382
     49 H20        -0.0018   -6.6234   -8.9356 H         1 <0>         0.1338
     50 H21         0.0097   -8.1266   -7.8901 H         1 <0>         0.3982
     51 H22         0.0196   -8.9491   -6.4252 H         1 <0>         0.4045
@<TRIPOS>BOND
     1    1    2 1
     2    1   31 1
     3    1   32 1
     4    1   33 1
     5    2    3 1
     6    2   12 1
     7    3    4 1
     8    3   34 1
     9    3   35 1
    10    4    9 ar
    11    4    5 ar
    12    5    6 ar
    13    5   36 1
    14    6    7 ar
    15    6   37 1
    16    7    8 ar
    17    7   10 1
    18    8    9 ar
    19    8   38 1
    20    9   39 1
    21   10   11 1
    22   11   40 1
    23   11   41 1
    24   11   42 1
    25   12   17 ar
    26   12   13 ar
    27   13   14 ar
    28   13   43 1
    29   14   15 ar
    30   14   44 1
    31   15   16 ar
    32   15   18 1
    33   16   17 ar
    34   16   45 1
    35   17   46 1
    36   18   27 2
    37   18   19 1
    38   19   20 1
    39   19   21 1
    40   21   26 ar
    41   21   22 ar
    42   22   23 ar
    43   22   47 1
    44   23   24 ar
    45   23   48 1
    46   24   25 ar
    47   24   49 1
    48   25   26 ar
    49   25   28 1
    50   26   27 1
    51   28   29 2
    52   28   30 am
    53   30   50 1
    54   30   51 1
@<TRIPOS>MOLECULE
CHEMBL539979
   47    50     0     0     0
SMALL
USER_CHARGES

@<TRIPOS>ATOM
      1 C1         -0.0163    1.3512    0.0095 C.2       1 <0>        -0.1749
      2 C2          1.3081    1.7995   -0.0008 C.2       1 <0>        -0.0618
      3 C3          2.1126    0.6813   -0.0144 C.2       1 <0>        -0.0812
      4 C4          3.5658    0.5029   -0.0288 C.2       1 <0>         0.5854
      5 O1          4.3019    1.4727   -0.0304 O.2       1 <0>        -0.4802
      6 N1          4.0837   -0.7415   -0.0400 N.am      1 <0>        -0.6572
      7 H1          5.0461   -0.8624   -0.0495 H         1 <0>         0.4245
      8 C5          3.2458   -1.8567   -0.0374 C.ar      1 <0>         0.1622
      9 C6          3.7976   -3.1323   -0.0485 C.ar      1 <0>        -0.1103
     10 C7          2.9753   -4.2410   -0.0461 C.ar      1 <0>        -0.1583
     11 C8          1.5997   -4.0887   -0.0323 C.ar      1 <0>        -0.0890
     12 C9          1.0413   -2.8259   -0.0213 C.ar      1 <0>        -0.1002
     13 C10         1.8600   -1.7046   -0.0235 C.ar      1 <0>         0.1481
     14 N2          1.2908   -0.4267   -0.0125 N.pl3     1 <0>        -0.3924
     15 C11         0.0021   -0.0041    0.0020 C.2       1 <0>         0.0344
     16 C12         3.5775   -5.6224   -0.0591 C.3       1 <0>         0.0522
     17 N3          3.7867   -6.0784    1.3215 N.4       1 <0>        -0.5057
     18 C13         4.3737   -7.4249    1.3089 C.3       1 <0>        -0.0357
     19 C14         4.5916   -7.8998    2.7469 C.3       1 <0>        -0.0329
     20 N4          5.1786   -9.2464    2.7342 N.4       1 <0>        -0.3915
     21 C15         6.5684   -9.1944    2.2125 C.3       1 <0>        -0.0170
     22 C16         7.2066  -10.4897    2.7742 C.3       1 <0>        -0.1457
     23 C17         6.5788  -10.6018    4.1825 C.3       1 <0>        -0.1479
     24 C18         5.2851   -9.7694    4.1136 C.3       1 <0>        -0.0078
     25 H2         -0.8981    1.9747    0.0252 H         1 <0>         0.1676
     26 H3          1.6379    2.8279    0.0013 H         1 <0>         0.1656
     27 H4          4.8704   -3.2562   -0.0593 H         1 <0>         0.1476
     28 H5          0.9614   -4.9598   -0.0306 H         1 <0>         0.1455
     29 H6         -0.0325   -2.7104   -0.0112 H         1 <0>         0.1532
     30 H7         -0.8682   -0.6436    0.0066 H         1 <0>         0.1826
     31 H8          2.9018   -6.3085   -0.5699 H         1 <0>         0.1489
     32 H9          4.5334   -5.5971   -0.5822 H         1 <0>         0.1463
     33 H10         4.4121   -5.4433    1.7944 H         1 <0>         0.4356
     34 H11         3.6981   -8.1110    0.7981 H         1 <0>         0.1555
     35 H12         5.3297   -7.3996    0.7858 H         1 <0>         0.1531
     36 H13         5.2673   -7.2138    3.2577 H         1 <0>         0.1512
     37 H14         3.6357   -7.9251    3.2700 H         1 <0>         0.1525
     38 H15         6.5708   -9.2057    1.1226 H         1 <0>         0.1398
     39 H16         7.0884   -8.3141    2.5903 H         1 <0>         0.1392
     40 H17         6.9362  -11.3499    2.1618 H         1 <0>         0.1041
     41 H18         8.2897  -10.3881    2.8418 H         1 <0>         0.1242
     42 H19         6.3476  -11.6420    4.4119 H         1 <0>         0.1130
     43 H20         7.2545  -10.1895    4.9319 H         1 <0>         0.1099
     44 H21         5.3377   -8.9421    4.8213 H         1 <0>         0.1357
     45 H22         4.4252  -10.4002    4.3389 H         1 <0>         0.1411
     46 H23         2.9018   -6.1018    1.8058 H         1 <0>         0.4366
     47 H24         4.6170   -9.8660    2.1696 H         1 <0>         0.4345
@<TRIPOS>BOND
     1    1   15 2
     2    1    2 1
     3    1   25 1
     4    2    3 2
     5    2   26 1
     6    3   14 1
     7    3    4 1
     8    4    5 2
     9    4    6 am
    10    6    7 1
    11    6    8 1
    12    8   13 ar
    13    8    9 ar
    14    9   10 ar
    15    9   27 1
    16   10   11 ar
    17   10   16 1
    18   11   12 ar
    19   11   28 1
    20   12   13 ar
    21   12   29 1
    22   13   14 1
    23   14   15 1
    24   15   30 1
    25   16   17 1
    26   16   31 1
    27   16   32 1
    28   17   18 1
    29   17   33 1
    30   17   46 1
    31   18   19 1
    32   18   34 1
    33   18   35 1
    34   19   20 1
    35   19   36 1
    36   19   37 1
    37   20   24 1
    38   20   21 1
    39   20   47 1
    40   21   22 1
    41   21   38 1
    42   21   39 1
    43   22   23 1
    44   22   40 1
    45   22   41 1
    46   23   24 1
    47   23   42 1
    48   23   43 1
    49   24   44 1
    50   24   45 1
@<TRIPOS>MOLECULE
CHEMBL539979__1
   46    49     0     0     0
SMALL
USER_CHARGES

@<TRIPOS>ATOM
      1 C1         -0.0163    1.3512    0.0095 C.2       1 <0>        -0.1876
      2 C2          1.3081    1.7995   -0.0008 C.2       1 <0>        -0.0804
      3 C3          2.1126    0.6813   -0.0144 C.2       1 <0>        -0.0765
      4 C4          3.5658    0.5029   -0.0288 C.2       1 <0>         0.5862
      5 O1          4.3019    1.4727   -0.0304 O.2       1 <0>        -0.5012
      6 N1          4.0837   -0.7415   -0.0400 N.am      1 <0>        -0.6551
      7 H1          5.0461   -0.8624   -0.0495 H         1 <0>         0.4210
      8 C5          3.2458   -1.8567   -0.0374 C.ar      1 <0>         0.1576
      9 C6          3.7976   -3.1323   -0.0485 C.ar      1 <0>        -0.1282
     10 C7          2.9753   -4.2410   -0.0461 C.ar      1 <0>        -0.0686
     11 C8          1.5997   -4.0887   -0.0323 C.ar      1 <0>        -0.0930
     12 C9          1.0413   -2.8259   -0.0213 C.ar      1 <0>        -0.0980
     13 C10         1.8600   -1.7046   -0.0235 C.ar      1 <0>         0.1028
     14 N2          1.2908   -0.4267   -0.0125 N.pl3     1 <0>        -0.3786
     15 C11         0.0021   -0.0041    0.0020 C.2       1 <0>         0.0315
     16 C12         3.5775   -5.6224   -0.0591 C.3       1 <0>         0.1035
     17 N3          3.7867   -6.0784    1.3215 N.3       1 <0>        -0.6777
     18 C13         4.3739   -7.4247    1.3481 C.3       1 <0>         0.0325
     19 C14         4.5765   -7.8642    2.7995 C.3       1 <0>        -0.0055
     20 N4          5.1637   -9.2105    2.8260 N.4       1 <0>        -0.3926
     21 C15         6.5589   -9.1708    2.3180 C.3       1 <0>        -0.0084
     22 C16         7.1911  -10.4517    2.9181 C.3       1 <0>        -0.1458
     23 C17         6.5484  -10.5296    4.3219 C.3       1 <0>        -0.1457
     24 C18         5.2554   -9.6995    4.2188 C.3       1 <0>        -0.0070
     25 H2         -0.8981    1.9747    0.0252 H         1 <0>         0.1601
     26 H3          1.6379    2.8279    0.0013 H         1 <0>         0.1584
     27 H4          4.8704   -3.2562   -0.0593 H         1 <0>         0.1370
     28 H5          0.9614   -4.9598   -0.0306 H         1 <0>         0.1389
     29 H6         -0.0325   -2.7104   -0.0112 H         1 <0>         0.1423
     30 H7         -0.8682   -0.6436    0.0066 H         1 <0>         0.1773
     31 H8          2.9018   -6.3085   -0.5699 H         1 <0>         0.0940
     32 H9          4.5334   -5.5971   -0.5822 H         1 <0>         0.0521
     33 H10         4.3579   -5.4246    1.8356 H         1 <0>         0.3524
     34 H11         3.7038   -8.1233    0.8470 H         1 <0>         0.0960
     35 H12         5.3354   -7.4119    0.8347 H         1 <0>         0.0537
     36 H13         5.2466   -7.1656    3.3005 H         1 <0>         0.1278
     37 H14         3.6150   -7.8770    3.3128 H         1 <0>         0.1399
     38 H15         6.5729   -9.2088    1.2288 H         1 <0>         0.1343
     39 H16         7.0748   -8.2814    2.6797 H         1 <0>         0.1327
     40 H17         6.9274  -11.3267    2.3240 H         1 <0>         0.0987
     41 H18         8.2735  -10.3482    2.9946 H         1 <0>         0.1167
     42 H19         6.3148  -11.5640    4.5742 H         1 <0>         0.1060
     43 H20         7.2160  -10.0989    5.0681 H         1 <0>         0.1040
     44 H21         5.3004   -8.8551    4.9066 H         1 <0>         0.1310
     45 H22         4.3932  -10.3249    4.4503 H         1 <0>         0.1335
     46 H23         4.6081   -9.8438    2.2708 H         1 <0>         0.4279
@<TRIPOS>BOND
     1    1   15 2
     2    1    2 1
     3    1   25 1
     4    2    3 2
     5    2   26 1
     6    3   14 1
     7    3    4 1
     8    4    5 2
     9    4    6 am
    10    6    7 1
    11    6    8 1
    12    8   13 ar
    13    8    9 ar
    14    9   10 ar
    15    9   27 1
    16   10   11 ar
    17   10   16 1
    18   11   12 ar
    19   11   28 1
    20   12   13 ar
    21   12   29 1
    22   13   14 1
    23   14   15 1
    24   15   30 1
    25   16   17 1
    26   16   31 1
    27   16   32 1
    28   17   18 1
    29   17   33 1
    30   18   19 1
    31   18   34 1
    32   18   35 1
    33   19   20 1
    34   19   36 1
    35   19   37 1
    36   20   24 1
    37   20   21 1
    38   20   46 1
    39   21   22 1
    40   21   38 1
    41   21   39 1
    42   22   23 1
    43   22   40 1
    44   22   41 1
    45   23   24 1
    46   23   42 1
    47   23   43 1
    48   24   44 1
    49   24   45 1
@<TRIPOS>MOLECULE
CHEMBL539979__2
   46    49     0     0     0
SMALL
USER_CHARGES

@<TRIPOS>ATOM
      1 C1         -0.0163    1.3512    0.0095 C.2       1 <0>        -0.1803
      2 C2          1.3081    1.7995   -0.0008 C.2       1 <0>        -0.0695
      3 C3          2.1126    0.6813   -0.0144 C.2       1 <0>        -0.0783
      4 C4          3.5658    0.5029   -0.0288 C.2       1 <0>         0.5860
      5 O1          4.3019    1.4727   -0.0304 O.2       1 <0>        -0.4883
      6 N1          4.0837   -0.7415   -0.0400 N.am      1 <0>        -0.6559
      7 H1          5.0461   -0.8624   -0.0495 H         1 <0>         0.4244
      8 C5          3.2458   -1.8567   -0.0374 C.ar      1 <0>         0.1602
      9 C6          3.7976   -3.1323   -0.0485 C.ar      1 <0>        -0.1105
     10 C7          2.9753   -4.2410   -0.0461 C.ar      1 <0>        -0.1422
     11 C8          1.5997   -4.0887   -0.0323 C.ar      1 <0>        -0.0911
     12 C9          1.0413   -2.8259   -0.0213 C.ar      1 <0>        -0.0983
     13 C10         1.8600   -1.7046   -0.0235 C.ar      1 <0>         0.1343
     14 N2          1.2908   -0.4267   -0.0125 N.pl3     1 <0>        -0.3876
     15 C11         0.0021   -0.0041    0.0020 C.2       1 <0>         0.0340
     16 C12         3.5775   -5.6224   -0.0591 C.3       1 <0>         0.0503
     17 N3          3.7867   -6.0784    1.3215 N.4       1 <0>        -0.5081
     18 C13         4.3737   -7.4249    1.3089 C.3       1 <0>        -0.0071
     19 C14         4.5916   -7.8998    2.7469 C.3       1 <0>         0.0162
     20 N4          5.1786   -9.2464    2.7342 N.3       1 <0>        -0.5112
     21 C15         6.6002   -9.2033    2.3059 C.3       1 <0>         0.0237
     22 C16         7.1735  -10.5380    2.8449 C.3       1 <0>        -0.1261
     23 C17         6.4529  -10.7003    4.2030 C.3       1 <0>        -0.1362
     24 C18         5.1840   -9.8351    4.0910 C.3       1 <0>         0.0369
     25 H2         -0.8981    1.9747    0.0252 H         1 <0>         0.1644
     26 H3          1.6379    2.8279    0.0013 H         1 <0>         0.1626
     27 H4          4.8704   -3.2562   -0.0593 H         1 <0>         0.1485
     28 H5          0.9614   -4.9598   -0.0306 H         1 <0>         0.1469
     29 H6         -0.0325   -2.7104   -0.0112 H         1 <0>         0.1509
     30 H7         -0.8682   -0.6436    0.0066 H         1 <0>         0.1808
     31 H8          2.9018   -6.3085   -0.5699 H         1 <0>         0.1452
     32 H9          4.5334   -5.5971   -0.5822 H         1 <0>         0.1414
     33 H10         4.4121   -5.4433    1.7944 H         1 <0>         0.4268
     34 H11         3.6981   -8.1110    0.7981 H         1 <0>         0.1435
     35 H12         5.3297   -7.3996    0.7858 H         1 <0>         0.1317
     36 H13         5.2673   -7.2138    3.2577 H         1 <0>         0.0595
     37 H14         3.6357   -7.9251    3.2700 H         1 <0>         0.0973
     38 H15         6.6735   -9.1642    1.2191 H         1 <0>         0.0870
     39 H16         7.1126   -8.3541    2.7579 H         1 <0>         0.0518
     40 H17         6.9259  -11.3623    2.1760 H         1 <0>         0.0809
     41 H18         8.2518  -10.4654    2.9866 H         1 <0>         0.0797
     42 H19         6.1857  -11.7442    4.3672 H         1 <0>         0.0812
     43 H20         7.0867  -10.3393    5.0131 H         1 <0>         0.0732
     44 H21         5.2074   -9.0429    4.8394 H         1 <0>         0.0517
     45 H22         4.2983  -10.4550    4.2303 H         1 <0>         0.0898
     46 H23         2.9018   -6.1018    1.8058 H         1 <0>         0.4294
@<TRIPOS>BOND
     1    1   15 2
     2    1    2 1
     3    1   25 1
     4    2    3 2
     5    2   26 1
     6    3   14 1
     7    3    4 1
     8    4    5 2
     9    4    6 am
    10    6    7 1
    11    6    8 1
    12    8   13 ar
    13    8    9 ar
    14    9   10 ar
    15    9   27 1
    16   10   11 ar
    17   10   16 1
    18   11   12 ar
    19   11   28 1
    20   12   13 ar
    21   12   29 1
    22   13   14 1
    23   14   15 1
    24   15   30 1
    25   16   17 1
    26   16   31 1
    27   16   32 1
    28   17   18 1
    29   17   33 1
    30   17   46 1
    31   18   19 1
    32   18   34 1
    33   18   35 1
    34   19   20 1
    35   19   36 1
    36   19   37 1
    37   20   24 1
    38   20   21 1
    39   21   22 1
    40   21   38 1
    41   21   39 1
    42   22   23 1
    43   22   40 1
    44   22   41 1
    45   23   24 1
    46   23   42 1
    47   23   43 1
    48   24   44 1
    49   24   45 1
@<TRIPOS>MOLECULE
CHEMBL107260
   59    62     0     0     0
SMALL
USER_CHARGES

@<TRIPOS>ATOM
      1 C1         -0.0167    1.3818    0.0096 C.ar      1 <0>        -0.2916
      2 C2          1.1915    2.0609    0.0018 C.ar      1 <0>         0.1946
      3 N1          2.3197    1.3705   -0.0127 N.ar      1 <0>        -0.5713
      4 C3          2.3029    0.0457   -0.0197 C.ar      1 <0>         0.5651
      5 N2          1.1654   -0.6335   -0.0129 N.ar      1 <0>        -0.5716
      6 C4          0.0021   -0.0041    0.0020 C.ar      1 <0>         0.1944
      7 N3          3.5022   -0.6451   -0.0348 N.pl3     1 <0>        -0.5862
      8 C5          4.7817    0.0778   -0.0370 C.3       1 <0>         0.1145
      9 C6          5.6243   -0.4138    1.1465 C.3       1 <0>         0.0975
     10 N4          5.6410   -1.8833    1.1327 N.am      1 <0>        -0.6087
     11 C7          4.3614   -2.6062    1.1349 C.3       1 <0>         0.0879
     12 C8          3.5188   -2.1146   -0.0429 C.3       1 <0>         0.1127
     13 C9          6.8088   -2.5560    1.1180 C.2       1 <0>         0.5132
     14 O1          7.8585   -1.9485    1.1160 O.2       1 <0>        -0.5331
     15 C10         6.8102   -4.0629    1.1041 C.3       1 <0>         0.1001
     16 N5          8.1919   -4.5498    1.0895 N.am      1 <0>        -0.7181
     17 C11         8.4394   -5.8746    1.0754 C.2       1 <0>         0.5268
     18 O2          7.5184   -6.6636    1.0748 O.2       1 <0>        -0.5350
     19 C12         9.8607   -6.3754    1.0604 C.3       1 <0>        -0.1614
     20 C13         9.8621   -7.9054    1.0462 C.3       1 <0>         0.1226
     21 N6         11.2438   -8.3923    1.0317 N.am      1 <0>        -0.5347
     22 C14        11.8743   -8.6004   -0.1728 C.2       1 <0>         0.2014
     23 C15        13.1430   -9.0401   -0.1834 C.2       1 <0>        -0.2483
     24 C16        13.7948   -9.2923    1.0547 C.2       1 <0>         0.5514
     25 O3         14.9419   -9.7009    1.0685 O.2       1 <0>        -0.5095
     26 N7         13.1410   -9.0779    2.2113 N.am      1 <0>        -0.6594
     27 H1         13.5837   -9.2482    3.0574 H         1 <0>         0.4319
     28 C17        11.8745   -8.6223    2.1943 C.2       1 <0>         0.6967
     29 O4         11.2937   -8.4211    3.2434 O.2       1 <0>        -0.5363
     30 C18        13.9208   -9.2737   -1.4504 C.3       1 <0>        -0.0459
     31 C19        12.9793   -9.3817   -2.6485 C.3       1 <0>        -0.1240
     32 C20        12.0317   -8.1761   -2.6259 C.3       1 <0>        -0.1172
     33 C21        11.0929   -8.3264   -1.4303 C.3       1 <0>        -0.0945
     34 H2         -0.9525    1.9208    0.0259 H         1 <0>         0.1453
     35 H3          1.2116    3.1407    0.0070 H         1 <0>         0.1682
     36 H4         -0.9219   -0.5632    0.0082 H         1 <0>         0.1684
     37 H5          5.3111   -0.1183   -0.9694 H         1 <0>         0.0721
     38 H6          4.5978    1.1474    0.0642 H         1 <0>         0.1133
     39 H7          6.6423   -0.0356    1.0529 H         1 <0>         0.1086
     40 H8          5.1849   -0.0617    2.0797 H         1 <0>         0.0757
     41 H9          4.5453   -3.6758    1.0337 H         1 <0>         0.1023
     42 H10         3.8320   -2.4101    2.0673 H         1 <0>         0.0812
     43 H11         2.5011   -2.4925    0.0544 H         1 <0>         0.1149
     44 H12         3.9562   -2.4704   -0.9758 H         1 <0>         0.0727
     45 H13         6.3033   -4.4350    1.9944 H         1 <0>         0.1027
     46 H14         6.2903   -4.4185    0.2145 H         1 <0>         0.1030
     47 H15         8.9285   -3.9188    1.0899 H         1 <0>         0.4142
     48 H16        10.3676   -6.0034    0.1701 H         1 <0>         0.1035
     49 H17        10.3806   -6.0198    1.9499 H         1 <0>         0.1079
     50 H18         9.3551   -8.2774    1.9365 H         1 <0>         0.1146
     51 H19         9.3422   -8.2610    0.1567 H         1 <0>         0.1088
     52 H20        14.6086   -8.4429   -1.6079 H         1 <0>         0.0780
     53 H21        14.4906  -10.1981   -1.3568 H         1 <0>         0.0835
     54 H22        13.5581   -9.3769   -3.5722 H         1 <0>         0.0780
     55 H23        12.4023  -10.3039   -2.5805 H         1 <0>         0.0696
     56 H24        12.6089   -7.2568   -2.5266 H         1 <0>         0.0738
     57 H25        11.4508   -8.1480   -3.5478 H         1 <0>         0.0814
     58 H26        10.4067   -9.1531   -1.6141 H         1 <0>         0.1019
     59 H27        10.5212   -7.4070   -1.3048 H         1 <0>         0.0921
@<TRIPOS>BOND
     1    1    6 ar
     2    1    2 ar
     3    1   34 1
     4    2    3 ar
     5    2   35 1
     6    3    4 ar
     7    4    5 ar
     8    4    7 1
     9    5    6 ar
    10    6   36 1
    11    7   12 1
    12    7    8 1
    13    8    9 1
    14    8   37 1
    15    8   38 1
    16    9   10 1
    17    9   39 1
    18    9   40 1
    19   10   11 1
    20   10   13 am
    21   11   12 1
    22   11   41 1
    23   11   42 1
    24   12   43 1
    25   12   44 1
    26   13   14 2
    27   13   15 1
    28   15   16 1
    29   15   45 1
    30   15   46 1
    31   16   17 am
    32   16   47 1
    33   17   18 2
    34   17   19 1
    35   19   20 1
    36   19   48 1
    37   19   49 1
    38   20   21 1
    39   20   50 1
    40   20   51 1
    41   21   28 am
    42   21   22 1
    43   22   33 1
    44   22   23 2
    45   23   24 1
    46   23   30 1
    47   24   25 2
    48   24   26 am
    49   26   27 1
    50   26   28 am
    51   28   29 2
    52   30   31 1
    53   30   52 1
    54   30   53 1
    55   31   32 1
    56   31   54 1
    57   31   55 1
    58   32   33 1
    59   32   56 1
    60   32   57 1
    61   33   58 1
    62   33   59 1
@<TRIPOS>MOLECULE
CHEMBL382744
   65    69     0     0     0
SMALL
USER_CHARGES

@<TRIPOS>ATOM
      1 C1         -3.6622   -0.0348    4.9982 C.ar      1 <0>        -0.0870
      2 C2         -5.0139   -0.2853    5.1965 C.ar      1 <0>        -0.1104
      3 C3         -5.4738   -1.5736    5.3602 C.ar      1 <0>        -0.0549
      4 C4         -4.5682   -2.6331    5.3250 C.ar      1 <0>        -0.1258
      5 C5         -3.1934   -2.3740    5.1224 C.ar      1 <0>        -0.0603
      6 C6         -2.7565   -1.0579    4.9600 C.ar      1 <0>        -0.0972
      7 C7         -2.2659   -3.5049    5.0905 C.2       1 <0>         0.1413
      8 N1         -2.7116   -4.7159    5.2461 N.2       1 <0>        -0.2214
      9 N2         -4.0622   -5.0017    5.4476 N.am      1 <0>        -0.5341
     10 C8         -4.9950   -4.0277    5.4932 C.2       1 <0>         0.5288
     11 O1         -6.1688   -4.3004    5.6706 O.2       1 <0>        -0.5215
     12 C9         -0.7934   -3.2658    4.8767 C.3       1 <0>        -0.0204
     13 C10        -0.0483   -4.5690    5.0101 C.ar      1 <0>        -0.0758
     14 C11         0.3376   -5.0187    6.2605 C.ar      1 <0>        -0.0749
     15 C12         1.0215   -6.2141    6.3918 C.ar      1 <0>        -0.1194
     16 C13         1.3236   -6.9657    5.2748 C.ar      1 <0>        -0.1435
     17 C14         0.9373   -6.5179    4.0108 C.ar      1 <0>        -0.1300
     18 C15         0.2425   -5.3136    3.8859 C.ar      1 <0>        -0.0418
     19 C16         1.2581   -7.3179    2.8096 C.2       1 <0>         0.5603
     20 O2          1.3382   -6.7782    1.7234 O.2       1 <0>        -0.5259
     21 N3          1.4617   -8.6457    2.9189 N.am      1 <0>        -0.5967
     22 C17         1.5971   -9.4769    1.6993 C.3       1 <0>         0.1210
     23 C18         3.0116   -9.8013    1.4559 C.3       1 <0>        -0.1738
     24 C19         3.6409  -10.5451    2.6459 C.3       1 <0>         0.1142
     25 N4          3.9422   -9.5787    3.6624 N.pl3     1 <0>        -0.9838
     26 C20         2.9949   -9.2725    4.7691 C.3       1 <0>         0.0856
     27 C21         1.5531   -9.2531    4.2172 C.3       1 <0>         0.0603
     28 S1          5.3908   -8.7784    3.6031 S.o2      1 <0>         2.6844
     29 O3          5.7420   -8.4742    4.9460 O.2       1 <0>        -0.9479
     30 O4          6.2370   -9.5331    2.7466 O.2       1 <0>        -0.9463
     31 C22         5.1025   -7.2384    2.7969 C.ar      1 <0>        -0.6813
     32 C23         5.1471   -7.1614    1.4172 C.ar      1 <0>         0.0135
     33 C24         4.9210   -5.9534    0.7848 C.ar      1 <0>        -0.1278
     34 C25         4.6497   -4.8221    1.5319 C.ar      1 <0>        -0.0103
     35 C26         4.6042   -4.8993    2.9111 C.ar      1 <0>        -0.1965
     36 C27         4.8262   -6.1085    3.5435 C.ar      1 <0>         0.0288
     37 C28         4.3090   -3.6661    3.7254 C.3       1 <0>         0.5087
     38 F1          4.1186   -2.5763    2.8691 F         1 <0>        -0.1752
     39 F2          3.1503   -3.8729    4.4816 F         1 <0>        -0.1674
     40 F3          5.3840   -3.4042    4.5815 F         1 <0>        -0.1741
     41 H1         -3.3226    0.9821    4.8678 H         1 <0>         0.1368
     42 H2         -5.7117    0.5386    5.2231 H         1 <0>         0.1376
     43 H3         -6.5261   -1.7610    5.5147 H         1 <0>         0.1434
     44 H4         -1.7082   -0.8492    4.8054 H         1 <0>         0.1418
     45 H5         -0.6329   -2.8559    3.8796 H         1 <0>         0.1070
     46 H6         -0.4278   -2.5603    5.6228 H         1 <0>         0.1087
     47 H7          0.1042   -4.4338    7.1379 H         1 <0>         0.1243
     48 H8          1.3198   -6.5595    7.3706 H         1 <0>         0.1306
     49 H9          1.8581   -7.8984    5.3785 H         1 <0>         0.1645
     50 H10        -0.0632   -4.9636    2.9110 H         1 <0>         0.1285
     51 H11         1.0322  -10.4002    1.8274 H         1 <0>         0.0787
     52 H12         1.2002   -8.9299    0.8441 H         1 <0>         0.0927
     53 H13         3.0842  -10.4280    0.5670 H         1 <0>         0.0930
     54 H14         3.5631   -8.8772    1.2831 H         1 <0>         0.0691
     55 H15         2.9372  -11.2814    3.0342 H         1 <0>         0.0941
     56 H16         4.5569  -11.0424    2.3269 H         1 <0>         0.0999
     57 H17         3.0796  -10.0364    5.5420 H         1 <0>         0.0997
     58 H18         3.2346   -8.2976    5.1935 H         1 <0>         0.0941
     59 H19         0.9222   -8.6979    4.9114 H         1 <0>         0.1232
     60 H20         1.1872  -10.2779    4.1536 H         1 <0>         0.0901
     61 H21         5.3590   -8.0451    0.8337 H         1 <0>         0.1465
     62 H22         4.9566   -5.8932   -0.2929 H         1 <0>         0.1454
     63 H23         4.4737   -3.8781    1.0377 H         1 <0>         0.1462
     64 H24         4.7869   -6.1696    4.6211 H         1 <0>         0.1465
     65 H25        -4.3381   -5.9251    5.5578 H         1 <0>         0.4360
@<TRIPOS>BOND
     1    1    6 ar
     2    1    2 ar
     3    1   41 1
     4    2    3 ar
     5    2   42 1
     6    3    4 ar
     7    3   43 1
     8    4   10 1
     9    4    5 ar
    10    5    6 ar
    11    5    7 1
    12    6   44 1
    13    7    8 2
    14    7   12 1
    15    8    9 1
    16    9   10 am
    17    9   65 1
    18   10   11 2
    19   12   13 1
    20   12   45 1
    21   12   46 1
    22   13   18 ar
    23   13   14 ar
    24   14   15 ar
    25   14   47 1
    26   15   16 ar
    27   15   48 1
    28   16   17 ar
    29   16   49 1
    30   17   18 ar
    31   17   19 1
    32   18   50 1
    33   19   20 2
    34   19   21 am
    35   21   27 1
    36   21   22 1
    37   22   23 1
    38   22   51 1
    39   22   52 1
    40   23   24 1
    41   23   53 1
    42   23   54 1
    43   24   25 1
    44   24   55 1
    45   24   56 1
    46   25   26 1
    47   25   28 1
    48   26   27 1
    49   26   57 1
    50   26   58 1
    51   27   59 1
    52   27   60 1
    53   28   29 2
    54   28   30 2
    55   28   31 1
    56   31   36 ar
    57   31   32 ar
    58   32   33 ar
    59   32   61 1
    60   33   34 ar
    61   33   62 1
    62   34   35 ar
    63   34   63 1
    64   35   36 ar
    65   35   37 1
    66   36   64 1
    67   37   38 1
    68   37   39 1
    69   37   40 1
@<TRIPOS>MOLECULE
CHEMBL192951
   49    53     0     0     0
SMALL
USER_CHARGES

@<TRIPOS>ATOM
      1 C1          0.0153    1.3747    0.0724 C.ar      1 <0>        -0.0804
      2 C2          1.1999    2.1007    0.0715 C.ar      1 <0>        -0.1355
      3 C3          2.4190    1.4593    0.0524 C.ar      1 <0>        -0.0457
      4 C4          2.4590    0.0657    0.0343 C.ar      1 <0>        -0.1493
      5 C5          1.2505   -0.6702    0.0358 C.ar      1 <0>         0.0274
      6 C6          0.0290    0.0083    0.0548 C.ar      1 <0>        -0.1234
      7 C7          1.3226   -2.1282    0.0171 C.2       1 <0>        -0.1632
      8 C8          2.5277   -2.7495   -0.0011 C.2       1 <0>         0.1706
      9 N1          3.7024   -2.0215   -0.0029 N.am      1 <0>        -0.6221
     10 C9          3.7230   -0.6773    0.0140 C.2       1 <0>         0.5552
     11 O1          4.7846   -0.0805    0.0115 O.2       1 <0>        -0.5245
     12 C10         2.3331   -4.2189   -0.0171 C.ar      1 <0>        -0.0556
     13 C11         3.2560   -5.2676   -0.0374 C.ar      1 <0>        -0.0913
     14 C12         2.8079   -6.5785   -0.0488 C.ar      1 <0>         0.1451
     15 C13         1.4449   -6.8511   -0.0404 C.ar      1 <0>        -0.1253
     16 C14         0.5304   -5.8136   -0.0203 C.ar      1 <0>        -0.0788
     17 C15         0.9692   -4.5076   -0.0084 C.ar      1 <0>        -0.0860
     18 C16         0.2441   -3.1849    0.0139 C.3       1 <0>        -0.0265
     19 N2          3.7299   -7.6311   -0.0692 N.am      1 <0>        -0.6753
     20 C17         4.8861   -7.5010   -0.7494 C.2       1 <0>         0.5146
     21 O2          5.1655   -6.4438   -1.2740 O.2       1 <0>        -0.4987
     22 C18         5.8319   -8.6693   -0.8582 C.3       1 <0>         0.0372
     23 N3          7.0093   -8.2747   -1.6430 N.3       1 <0>        -0.5207
     24 C19         6.6431   -7.9984   -3.0397 C.3       1 <0>         0.0118
     25 C20         7.8852   -7.5343   -3.8051 C.3       1 <0>         0.0653
     26 O3          8.9043   -8.5322   -3.6998 O.3       1 <0>        -0.3857
     27 C21         9.2857   -8.8256   -2.3531 C.3       1 <0>         0.0636
     28 C22         8.0578   -9.3028   -1.5730 C.3       1 <0>         0.0179
     29 H1         -0.9296    1.8975    0.0917 H         1 <0>         0.1308
     30 H2          1.1646    3.1800    0.0855 H         1 <0>         0.1325
     31 H3          3.3354    2.0308    0.0511 H         1 <0>         0.1398
     32 H4         -0.8991   -0.5440    0.0561 H         1 <0>         0.1340
     33 H5          4.3152   -5.0570   -0.0446 H         1 <0>         0.1419
     34 H6          1.0994   -7.8743   -0.0500 H         1 <0>         0.1348
     35 H7         -0.5282   -6.0273   -0.0138 H         1 <0>         0.1370
     36 H8         -0.3645   -3.1043    0.9146 H         1 <0>         0.1075
     37 H9         -0.3804   -3.0828   -0.8736 H         1 <0>         0.1072
     38 H10         3.5369   -8.4543    0.4062 H         1 <0>         0.4137
     39 H11         6.1463   -8.9763    0.1392 H         1 <0>         0.1113
     40 H12         5.3278   -9.5000   -1.3521 H         1 <0>         0.0712
     41 H13         6.2502   -8.9053   -3.4992 H         1 <0>         0.0401
     42 H14         5.8842   -7.2165   -3.0692 H         1 <0>         0.1034
     43 H15         7.6309   -7.3831   -4.8542 H         1 <0>         0.0995
     44 H16         8.2467   -6.5985   -3.3790 H         1 <0>         0.0629
     45 H17        10.0444   -9.6083   -2.3520 H         1 <0>         0.1010
     46 H18         9.6880   -7.9273   -1.8848 H         1 <0>         0.0618
     47 H19         8.3317   -9.4731   -0.5318 H         1 <0>         0.0894
     48 H20         7.6875  -10.2306   -2.0091 H         1 <0>         0.0466
     49 H21         4.5463   -2.4997   -0.0162 H         1 <0>         0.4128
@<TRIPOS>BOND
     1    1    6 ar
     2    1    2 ar
     3    1   29 1
     4    2    3 ar
     5    2   30 1
     6    3    4 ar
     7    3   31 1
     8    4   10 1
     9    4    5 ar
    10    5    6 ar
    11    5    7 1
    12    6   32 1
    13    7   18 1
    14    7    8 2
    15    8    9 1
    16    8   12 1
    17    9   10 am
    18    9   49 1
    19   10   11 2
    20   12   17 ar
    21   12   13 ar
    22   13   14 ar
    23   13   33 1
    24   14   15 ar
    25   14   19 1
    26   15   16 ar
    27   15   34 1
    28   16   17 ar
    29   16   35 1
    30   17   18 1
    31   18   36 1
    32   18   37 1
    33   19   20 am
    34   19   38 1
    35   20   21 2
    36   20   22 1
    37   22   23 1
    38   22   39 1
    39   22   40 1
    40   23   28 1
    41   23   24 1
    42   24   25 1
    43   24   41 1
    44   24   42 1
    45   25   26 1
    46   25   43 1
    47   25   44 1
    48   26   27 1
    49   27   28 1
    50   27   45 1
    51   27   46 1
    52   28   47 1
    53   28   48 1
@<TRIPOS>MOLECULE
CHEMBL445050
   44    46     0     0     0
SMALL
USER_CHARGES

@<TRIPOS>ATOM
      1 C1         -0.0187    1.5258    0.0104 C.3       1 <0>        -0.1818
      2 C2          0.0021   -0.0041    0.0020 C.3       1 <0>         0.1225
      3 C3          0.7074   -0.4901   -1.2379 C.2       1 <0>         0.2181
      4 N1          2.0518   -0.6445   -1.3594 N.pl3     1 <0>        -0.5736
      5 H1          2.7163   -0.4651   -0.6760 H         1 <0>         0.4328
      6 C4          2.2947   -1.1054   -2.6390 C.ar      1 <0>         0.0577
      7 C5          3.4434   -1.4434   -3.3400 C.ar      1 <0>        -0.0812
      8 C6          3.3550   -1.8854   -4.6455 C.ar      1 <0>        -0.0899
      9 C7          2.1265   -1.9977   -5.2702 C.ar      1 <0>        -0.0765
     10 C8          0.9581   -1.6656   -4.5896 C.ar      1 <0>        -0.0821
     11 C9          1.0374   -1.2125   -3.2557 C.ar      1 <0>         0.0989
     12 N2          0.1172   -0.8292   -2.3488 N.2       1 <0>        -0.4538
     13 C10        -0.3507   -1.7863   -5.2569 C.2       1 <0>         0.5614
     14 O1         -1.3680   -1.4949   -4.6577 O.2       1 <0>        -0.5229
     15 N3         -0.4199   -2.2197   -6.5312 N.am      1 <0>        -0.8482
     16 N4         -1.3761   -0.5125    0.0124 N.4       1 <0>        -0.4971
     17 C11        -2.0260   -0.1396    1.2760 C.3       1 <0>         0.0204
     18 C12        -1.3251   -0.8462    2.4380 C.3       1 <0>        -0.1423
     19 C13        -2.0021   -0.4578    3.7540 C.3       1 <0>        -0.1167
     20 C14        -3.4728   -0.8777    3.7143 C.3       1 <0>        -0.1324
     21 C15        -4.1737   -0.1711    2.5522 C.3       1 <0>        -0.1168
     22 C16        -3.4968   -0.5595    1.2363 C.3       1 <0>        -0.1400
     23 H2          1.0039    1.9031    0.0027 H         1 <0>         0.1076
     24 H3         -0.5459    1.8868   -0.8726 H         1 <0>         0.0938
     25 H4         -0.5289    1.8773    0.9072 H         1 <0>         0.0976
     26 H5          0.5293   -0.3651    0.8851 H         1 <0>         0.1569
     27 H6          4.4091   -1.3602   -2.8637 H         1 <0>         0.1391
     28 H7          4.2544   -2.1457   -5.1838 H         1 <0>         0.1503
     29 H8          2.0730   -2.3445   -6.2916 H         1 <0>         0.1443
     30 H9          0.3915   -2.4522   -7.0092 H         1 <0>         0.4023
     31 H10        -1.2812   -2.2991   -6.9704 H         1 <0>         0.4107
     32 H11        -1.8879   -0.1129   -0.7598 H         1 <0>         0.4399
     33 H12        -1.9599    0.9396    1.4139 H         1 <0>         0.1442
     34 H13        -1.3913   -1.9254    2.3001 H         1 <0>         0.0890
     35 H14        -0.2774   -0.5471    2.4663 H         1 <0>         0.0841
     36 H15        -1.5027   -0.9612    4.5818 H         1 <0>         0.0849
     37 H16        -1.9359    0.6214    3.8919 H         1 <0>         0.0753
     38 H17        -3.5389   -1.9569    3.5763 H         1 <0>         0.0708
     39 H18        -3.9551   -0.6010    4.6518 H         1 <0>         0.0799
     40 H19        -5.2215   -0.4703    2.5240 H         1 <0>         0.0863
     41 H20        -4.1076    0.9081    2.6902 H         1 <0>         0.0751
     42 H21        -3.9961   -0.0561    0.4084 H         1 <0>         0.0909
     43 H22        -3.5629   -1.6387    1.0983 H         1 <0>         0.0887
     44 H23        -1.3644   -1.5176   -0.0760 H         1 <0>         0.4316
@<TRIPOS>BOND
     1    1    2 1
     2    1   23 1
     3    1   24 1
     4    1   25 1
     5    2    3 1
     6    2   16 1
     7    2   26 1
     8    3   12 2
     9    3    4 1
    10    4    5 1
    11    4    6 1
    12    6   11 ar
    13    6    7 ar
    14    7    8 ar
    15    7   27 1
    16    8    9 ar
    17    8   28 1
    18    9   10 ar
    19    9   29 1
    20   10   11 ar
    21   10   13 1
    22   11   12 1
    23   13   14 2
    24   13   15 am
    25   15   30 1
    26   15   31 1
    27   16   17 1
    28   16   32 1
    29   16   44 1
    30   17   22 1
    31   17   18 1
    32   17   33 1
    33   18   19 1
    34   18   34 1
    35   18   35 1
    36   19   20 1
    37   19   36 1
    38   19   37 1
    39   20   21 1
    40   20   38 1
    41   20   39 1
    42   21   22 1
    43   21   40 1
    44   21   41 1
    45   22   42 1
    46   22   43 1
@<TRIPOS>MOLECULE
CHEMBL445050__1
   44    46     0     0     0
SMALL
USER_CHARGES

@<TRIPOS>ATOM
      1 C1         -0.0255    1.5187    0.0183 C.3       1 <0>        -0.1818
      2 C2         -0.1287   -0.0055   -0.0661 C.3       1 <0>         0.1200
      3 C3         -1.5787   -0.4068   -0.1519 C.2       1 <0>         0.2226
      4 N1         -2.4053   -0.5736    0.9135 N.pl3     1 <0>        -0.5737
      5 H1         -2.1714   -0.4573    1.8476 H         1 <0>         0.4327
      6 C4         -3.6414   -0.9393    0.4165 C.ar      1 <0>         0.0572
      7 C5         -4.8639   -1.2408    0.9994 C.ar      1 <0>        -0.0809
      8 C6         -5.9446   -1.5804    0.2093 C.ar      1 <0>        -0.0903
      9 C7         -5.8252   -1.6244   -1.1676 C.ar      1 <0>        -0.0765
     10 C8         -4.6099   -1.3259   -1.7783 C.ar      1 <0>        -0.0826
     11 C9         -3.4996   -0.9782   -0.9803 C.ar      1 <0>         0.0995
     12 N2         -2.2253   -0.6394   -1.2588 N.2       1 <0>        -0.4537
     13 C10        -4.4846   -1.3728   -3.2463 C.2       1 <0>         0.5613
     14 O1         -3.4208   -1.1112   -3.7744 O.2       1 <0>        -0.5225
     15 N3         -5.5489   -1.7056   -4.0033 N.am      1 <0>        -0.8484
     16 N4          0.5820   -0.4790   -1.2614 N.4       1 <0>        -0.4962
     17 C11         0.6019   -1.9478   -1.2694 C.3       1 <0>         0.0238
     18 C12         1.4474   -2.4528   -0.0985 C.3       1 <0>        -0.1395
     19 C13         1.4681   -3.9827   -0.1070 C.3       1 <0>        -0.1165
     20 C14         2.0721   -4.4773   -1.4228 C.3       1 <0>        -0.1304
     21 C15         1.2266   -3.9723   -2.5937 C.3       1 <0>        -0.1164
     22 C16         1.2059   -2.4424   -2.5853 C.3       1 <0>        -0.1365
     23 H2          1.0155    1.8046    0.1689 H         1 <0>         0.1000
     24 H3         -0.3929    1.9596   -0.9084 H         1 <0>         0.0928
     25 H4         -0.6256    1.8778    0.8544 H         1 <0>         0.1072
     26 H5          0.3193   -0.4497    0.8228 H         1 <0>         0.1568
     27 H6         -4.9705   -1.2102    2.0736 H         1 <0>         0.1389
     28 H7         -6.8922   -1.8143    0.6716 H         1 <0>         0.1501
     29 H8         -6.6789   -1.8919   -1.7725 H         1 <0>         0.1440
     30 H9         -6.3974   -1.9143   -3.5821 H         1 <0>         0.4022
     31 H10        -5.4664   -1.7365   -4.9693 H         1 <0>         0.4106
     32 H11         0.1098   -0.1445   -2.0880 H         1 <0>         0.4418
     33 H12        -0.4159   -2.3255   -1.1722 H         1 <0>         0.1392
     34 H13         2.4652   -2.0751   -0.1958 H         1 <0>         0.0903
     35 H14         1.0171   -2.1005    0.8389 H         1 <0>         0.0793
     36 H15         2.0704   -4.3425    0.7272 H         1 <0>         0.0845
     37 H16         0.4503   -4.3604   -0.0097 H         1 <0>         0.0715
     38 H17         3.0899   -4.0996   -1.5201 H         1 <0>         0.0714
     39 H18         2.0869   -5.5672   -1.4288 H         1 <0>         0.0789
     40 H19         1.6569   -4.3247   -3.5311 H         1 <0>         0.0857
     41 H20         0.2088   -4.3500   -2.4964 H         1 <0>         0.0729
     42 H21         0.6035   -2.0827   -3.4195 H         1 <0>         0.0925
     43 H22         2.2237   -2.0647   -2.6826 H         1 <0>         0.0866
     44 H23         1.5286   -0.1298   -1.2502 H         1 <0>         0.4317
@<TRIPOS>BOND
     1    1    2 1
     2    1   23 1
     3    1   24 1
     4    1   25 1
     5    2    3 1
     6    2   16 1
     7    2   26 1
     8    3   12 2
     9    3    4 1
    10    4    5 1
    11    4    6 1
    12    6   11 ar
    13    6    7 ar
    14    7    8 ar
    15    7   27 1
    16    8    9 ar
    17    8   28 1
    18    9   10 ar
    19    9   29 1
    20   10   11 ar
    21   10   13 1
    22   11   12 1
    23   13   14 2
    24   13   15 am
    25   15   30 1
    26   15   31 1
    27   16   17 1
    28   16   32 1
    29   16   44 1
    30   17   22 1
    31   17   18 1
    32   17   33 1
    33   18   19 1
    34   18   34 1
    35   18   35 1
    36   19   20 1
    37   19   36 1
    38   19   37 1
    39   20   21 1
    40   20   38 1
    41   20   39 1
    42   21   22 1
    43   21   40 1
    44   21   41 1
    45   22   42 1
    46   22   43 1
@<TRIPOS>MOLECULE
CHEMBL518484
   47    50     0     0     0
SMALL
USER_CHARGES

@<TRIPOS>ATOM
      1 C1         -0.0167    1.3781    0.0096 C.ar      1 <0>        -0.0624
      2 C2          1.1709    2.0855    0.0021 C.ar      1 <0>        -0.1392
      3 C3          2.3773    1.4107   -0.0130 C.ar      1 <0>        -0.0213
      4 C4          2.3960    0.0285   -0.0201 C.ar      1 <0>        -0.6783
      5 C5          1.2084   -0.6789   -0.0117 C.ar      1 <0>        -0.0218
      6 C6          0.0021   -0.0041    0.0020 C.ar      1 <0>        -0.1396
      7 S1          3.9337   -0.8316   -0.0405 S.o2      1 <0>         2.6900
      8 O1          3.6744   -2.1140   -0.5951 O.2       1 <0>        -0.9534
      9 O2          4.8903    0.0598   -0.5970 O.2       1 <0>        -0.9520
     10 N1          4.3776   -1.0785    1.5357 N.pl3     1 <0>        -0.9993
     11 C7          5.1903   -0.0839    2.2491 C.3       1 <0>         0.1185
     12 C8          6.4214   -0.7820    2.8353 C.3       1 <0>        -0.1236
     13 C9          5.9707   -1.9620    3.6994 C.3       1 <0>        -0.0101
     14 C10         5.2106   -2.9694    2.8337 C.3       1 <0>        -0.1318
     15 C11         3.9610   -2.2935    2.2491 C.3       1 <0>         0.1198
     16 C12         7.1777   -2.6306    4.3053 C.2       1 <0>         0.2969
     17 N2          7.9326   -3.5793    3.6922 N.pl3     1 <0>        -0.5939
     18 H1          7.7933   -3.9402    2.8026 H         1 <0>         0.4241
     19 C13         8.9362   -3.9334    4.5732 C.ar      1 <0>         0.0347
     20 C14         9.9932   -4.8305    4.5203 C.ar      1 <0>        -0.0782
     21 C15        10.8492   -4.9590    5.5965 C.ar      1 <0>        -0.1149
     22 C16        10.6668   -4.1988    6.7371 C.ar      1 <0>        -0.0864
     23 C17         9.6142   -3.2907    6.8165 C.ar      1 <0>        -0.0915
     24 C18         8.7338   -3.1521    5.7227 C.ar      1 <0>         0.1040
     25 N3          7.6539   -2.3796    5.4918 N.2       1 <0>        -0.4640
     26 C19         9.4215   -2.4808    8.0330 C.2       1 <0>         0.5577
     27 O3          8.5006   -1.6892    8.0969 O.2       1 <0>        -0.5115
     28 N4         10.2659   -2.6177    9.0745 N.am      1 <0>        -0.8557
     29 H2         -0.9591    1.9053    0.0259 H         1 <0>         0.1324
     30 H3          1.1563    3.1654    0.0076 H         1 <0>         0.1344
     31 H4          3.3051    1.9634   -0.0196 H         1 <0>         0.1399
     32 H5          1.2231   -1.7588   -0.0176 H         1 <0>         0.1394
     33 H6         -0.9258   -0.5567    0.0082 H         1 <0>         0.1341
     34 H7          5.5074    0.6945    1.5551 H         1 <0>         0.1007
     35 H8          4.6031    0.3583    3.0539 H         1 <0>         0.0794
     36 H9          7.0540   -1.1450    2.0253 H         1 <0>         0.0720
     37 H10         6.9828   -0.0762    3.4476 H         1 <0>         0.0906
     38 H11         5.3181   -1.6014    4.4946 H         1 <0>         0.1159
     39 H12         5.8546   -3.3118    2.0236 H         1 <0>         0.0710
     40 H13         4.9102   -3.8206    3.4447 H         1 <0>         0.0868
     41 H14         3.2757   -2.0278    3.0540 H         1 <0>         0.0796
     42 H15         3.4669   -2.9735    1.5552 H         1 <0>         0.1007
     43 H16        10.1469   -5.4302    3.6353 H         1 <0>         0.1292
     44 H17        11.6690   -5.6603    5.5468 H         1 <0>         0.1391
     45 H18        11.3440   -4.3104    7.5709 H         1 <0>         0.1345
     46 H19        11.0005   -3.2491    9.0235 H         1 <0>         0.3984
     47 H20        10.1391   -2.0848    9.8750 H         1 <0>         0.4051
@<TRIPOS>BOND
     1    1    6 ar
     2    1    2 ar
     3    1   29 1
     4    2    3 ar
     5    2   30 1
     6    3    4 ar
     7    3   31 1
     8    4    5 ar
     9    4    7 1
    10    5    6 ar
    11    5   32 1
    12    6   33 1
    13    7    8 2
    14    7    9 2
    15    7   10 1
    16   10   15 1
    17   10   11 1
    18   11   12 1
    19   11   34 1
    20   11   35 1
    21   12   13 1
    22   12   36 1
    23   12   37 1
    24   13   14 1
    25   13   16 1
    26   13   38 1
    27   14   15 1
    28   14   39 1
    29   14   40 1
    30   15   41 1
    31   15   42 1
    32   16   25 2
    33   16   17 1
    34   17   18 1
    35   17   19 1
    36   19   24 ar
    37   19   20 ar
    38   20   21 ar
    39   20   43 1
    40   21   22 ar
    41   21   44 1
    42   22   23 ar
    43   22   45 1
    44   23   24 ar
    45   23   26 1
    46   24   25 1
    47   26   27 2
    48   26   28 am
    49   28   46 1
    50   28   47 1
@<TRIPOS>MOLECULE
CHEMBL203884
   55    60     0     0     0
SMALL
USER_CHARGES

@<TRIPOS>ATOM
      1 C1         -1.2470    1.1553   -0.1453 C.3       1 <0>         0.0674
      2 N1         -0.5790   -0.1464   -0.0711 N.am      1 <0>        -0.6179
      3 C2         -0.4438   -0.8279    1.2187 C.3       1 <0>         0.1206
      4 C3         -1.6605   -1.7261    1.4509 C.3       1 <0>        -0.0822
      5 C4         -1.5215   -2.4271    2.7777 C.2       1 <0>         0.0350
      6 C5         -0.8466   -3.5708    3.0015 C.2       1 <0>         0.0400
      7 N2         -0.9750   -3.8518    4.3350 N.pl3     1 <0>        -0.5087
      8 H1         -0.5981   -4.6143    4.8014 H         1 <0>         0.4683
      9 C6         -1.7243   -2.8694    4.8800 C.cat     1 <0>         0.3054
     10 N3         -2.0433   -2.0182    3.9436 N.pl3     1 <0>        -0.4753
     11 C7         -0.0887   -0.7170   -1.1894 C.2       1 <0>         0.5740
     12 O1          0.3700   -1.8422   -1.1468 O.2       1 <0>        -0.5293
     13 C8         -0.1087    0.0242   -2.4658 C.ar      1 <0>        -0.1765
     14 C9          0.0896    1.4104   -2.4749 C.ar      1 <0>        -0.0585
     15 C10         0.0731    2.1057   -3.6480 C.ar      1 <0>        -0.1412
     16 C11        -0.1415    1.4441   -4.8566 C.ar      1 <0>         0.1684
     17 C12        -0.3417    0.0534   -4.8580 C.ar      1 <0>        -0.1053
     18 C13        -0.3191   -0.6555   -3.6643 C.ar      1 <0>         0.0049
     19 C14        -0.5386   -0.3371   -6.2674 C.ar      1 <0>        -0.0887
     20 C15        -0.7774   -1.5434   -6.9032 C.ar      1 <0>        -0.0234
     21 C16        -0.9207   -1.5833   -8.2885 C.ar      1 <0>        -0.1706
     22 C17        -0.8222   -0.3977   -9.0359 C.ar      1 <0>         0.0175
     23 C18        -0.5872    0.7922   -8.4118 C.ar      1 <0>        -0.1256
     24 C19        -0.4424    0.8436   -7.0222 C.ar      1 <0>         0.1862
     25 N4         -0.2056    1.8939   -6.1595 N.pl3     1 <0>        -0.6014
     26 H2         -0.0995    2.8191   -6.4308 H         1 <0>         0.4249
     27 C20        -0.5256    1.9099   -9.4327 C.3       1 <0>        -0.0780
     28 C21        -0.3166    1.2041  -10.7893 C.3       1 <0>        -0.1204
     29 C22        -0.9396   -0.1843  -10.5312 C.3       1 <0>        -0.0888
     30 C23        -1.1641   -2.9806   -8.6887 C.2       1 <0>         0.5638
     31 O2         -1.3322   -3.3561   -9.8328 O.2       1 <0>        -0.5194
     32 N5         -1.1734   -3.7809   -7.6087 N.am      1 <0>        -0.7260
     33 C24        -0.9353   -2.9615   -6.4148 C.3       1 <0>         0.1416
     34 H3         -0.5290    1.9452    0.0750 H         1 <0>         0.0659
     35 H4         -1.6504    1.3000   -1.1475 H         1 <0>         0.0896
     36 H5         -2.0587    1.1890    0.5814 H         1 <0>         0.0702
     37 H6          0.4610   -1.4356    1.2155 H         1 <0>         0.0952
     38 H7         -0.3814   -0.0874    2.0161 H         1 <0>         0.0829
     39 H8         -2.5654   -1.1184    1.4541 H         1 <0>         0.0978
     40 H9         -1.7230   -2.4666    0.6535 H         1 <0>         0.1179
     41 H10        -0.3080   -4.1543    2.2695 H         1 <0>         0.2283
     42 H11        -2.0089   -2.7978    5.9194 H         1 <0>         0.2666
     43 H12         0.2565    1.9334   -1.5449 H         1 <0>         0.1398
     44 H13         0.2269    3.1747   -3.6409 H         1 <0>         0.1350
     45 H14        -0.4680   -1.7252   -3.6641 H         1 <0>         0.1360
     46 H15        -1.4607    2.4700   -9.4375 H         1 <0>         0.0835
     47 H16         0.3125    2.5729   -9.2179 H         1 <0>         0.0748
     48 H17        -0.8472    1.7266  -11.5854 H         1 <0>         0.0845
     49 H18         0.7445    1.1169  -11.0230 H         1 <0>         0.0774
     50 H19        -0.3848   -0.9538  -11.0681 H         1 <0>         0.0898
     51 H20        -1.9868   -0.1913  -10.8335 H         1 <0>         0.0919
     52 H21        -1.3139   -4.7406   -7.6172 H         1 <0>         0.4274
     53 H22        -0.0253   -3.2881   -5.9114 H         1 <0>         0.1011
     54 H23        -1.7854   -3.0318   -5.7362 H         1 <0>         0.0992
     55 H24        -2.5755   -1.2172    4.0705 H         1 <0>         0.4642
@<TRIPOS>BOND
     1    1    2 1
     2    1   34 1
     3    1   35 1
     4    1   36 1
     5    2    3 1
     6    2   11 am
     7    3    4 1
     8    3   37 1
     9    3   38 1
    10    4    5 1
    11    4   39 1
    12    4   40 1
    13    5   10 1
    14    5    6 2
    15    6    7 1
    16    6   41 1
    17    7    8 1
    18    7    9 1
    19    9   10 2
    20    9   42 1
    21   10   55 1
    22   11   12 2
    23   11   13 1
    24   13   18 ar
    25   13   14 ar
    26   14   15 ar
    27   14   43 1
    28   15   16 ar
    29   15   44 1
    30   16   25 1
    31   16   17 ar
    32   17   18 ar
    33   17   19 1
    34   18   45 1
    35   19   24 ar
    36   19   20 ar
    37   20   33 1
    38   20   21 ar
    39   21   22 ar
    40   21   30 1
    41   22   29 1
    42   22   23 ar
    43   23   24 ar
    44   23   27 1
    45   24   25 1
    46   25   26 1
    47   27   28 1
    48   27   46 1
    49   27   47 1
    50   28   29 1
    51   28   48 1
    52   28   49 1
    53   29   50 1
    54   29   51 1
    55   30   31 2
    56   30   32 am
    57   32   33 1
    58   32   52 1
    59   33   53 1
    60   33   54 1
@<TRIPOS>MOLECULE
CHEMBL203884__1
   54    59     0     0     0
SMALL
USER_CHARGES

@<TRIPOS>ATOM
      1 C1         -1.2470    1.1553   -0.1453 C.3       1 <0>         0.0704
      2 N1         -0.5790   -0.1464   -0.0711 N.am      1 <0>        -0.6148
      3 C2         -0.4438   -0.8279    1.2187 C.3       1 <0>         0.1266
      4 C3         -1.6605   -1.7261    1.4509 C.3       1 <0>        -0.0471
      5 C4         -1.5215   -2.4271    2.7777 C.2       1 <0>         0.0049
      6 C5         -2.4209   -2.4099    3.7798 C.2       1 <0>        -0.0539
      7 N2         -1.9008   -3.1710    4.7918 N.pl3     1 <0>        -0.5713
      8 H1         -2.3166   -3.3494    5.6498 H         1 <0>         0.4209
      9 C6         -0.7009   -3.6271    4.3724 C.2       1 <0>         0.1866
     10 N3         -0.4829   -3.1823    3.1651 N.2       1 <0>        -0.4853
     11 C7         -0.0887   -0.7170   -1.1894 C.2       1 <0>         0.5628
     12 O1          0.3700   -1.8422   -1.1468 O.2       1 <0>        -0.5254
     13 C8         -0.1087    0.0242   -2.4658 C.ar      1 <0>        -0.1610
     14 C9          0.0896    1.4104   -2.4749 C.ar      1 <0>        -0.0569
     15 C10         0.0731    2.1057   -3.6480 C.ar      1 <0>        -0.1430
     16 C11        -0.1415    1.4441   -4.8566 C.ar      1 <0>         0.1605
     17 C12        -0.3417    0.0534   -4.8580 C.ar      1 <0>        -0.1062
     18 C13        -0.3191   -0.6555   -3.6643 C.ar      1 <0>         0.0000
     19 C14        -0.5386   -0.3371   -6.2674 C.ar      1 <0>        -0.0867
     20 C15        -0.7774   -1.5434   -6.9032 C.ar      1 <0>        -0.0195
     21 C16        -0.9207   -1.5833   -8.2885 C.ar      1 <0>        -0.1757
     22 C17        -0.8222   -0.3977   -9.0359 C.ar      1 <0>         0.0146
     23 C18        -0.5872    0.7922   -8.4118 C.ar      1 <0>        -0.1296
     24 C19        -0.4424    0.8436   -7.0222 C.ar      1 <0>         0.1876
     25 N4         -0.2056    1.8939   -6.1595 N.pl3     1 <0>        -0.6033
     26 H2         -0.0995    2.8191   -6.4308 H         1 <0>         0.4226
     27 C20        -0.5256    1.9099   -9.4327 C.3       1 <0>        -0.0763
     28 C21        -0.3166    1.2041  -10.7893 C.3       1 <0>        -0.1200
     29 C22        -0.9396   -0.1843  -10.5312 C.3       1 <0>        -0.0868
     30 C23        -1.1641   -2.9806   -8.6887 C.2       1 <0>         0.5650
     31 O2         -1.3322   -3.3561   -9.8328 O.2       1 <0>        -0.5259
     32 N5         -1.1734   -3.7809   -7.6087 N.am      1 <0>        -0.7247
     33 C24        -0.9353   -2.9615   -6.4148 C.3       1 <0>         0.1384
     34 H3         -0.5290    1.9452    0.0750 H         1 <0>         0.0597
     35 H4         -1.6504    1.3000   -1.1475 H         1 <0>         0.0812
     36 H5         -2.0587    1.1890    0.5814 H         1 <0>         0.0714
     37 H6          0.4610   -1.4356    1.2155 H         1 <0>         0.0935
     38 H7         -0.3814   -0.0874    2.0161 H         1 <0>         0.0759
     39 H8         -2.5654   -1.1184    1.4541 H         1 <0>         0.0737
     40 H9         -1.7230   -2.4666    0.6535 H         1 <0>         0.0799
     41 H10        -3.3699   -1.8945    3.7844 H         1 <0>         0.1754
     42 H11        -0.0340   -4.2587    4.9405 H         1 <0>         0.2083
     43 H12         0.2565    1.9334   -1.5449 H         1 <0>         0.1417
     44 H13         0.2269    3.1747   -3.6409 H         1 <0>         0.1327
     45 H14        -0.4680   -1.7252   -3.6641 H         1 <0>         0.1363
     46 H15        -1.4607    2.4700   -9.4375 H         1 <0>         0.0817
     47 H16         0.3125    2.5729   -9.2179 H         1 <0>         0.0734
     48 H17        -0.8472    1.7266  -11.5854 H         1 <0>         0.0823
     49 H18         0.7445    1.1169  -11.0230 H         1 <0>         0.0761
     50 H19        -0.3848   -0.9538  -11.0681 H         1 <0>         0.0880
     51 H20        -1.9868   -0.1913  -10.8335 H         1 <0>         0.0898
     52 H21        -1.3139   -4.7406   -7.6172 H         1 <0>         0.4268
     53 H22        -0.0253   -3.2881   -5.9114 H         1 <0>         0.1032
     54 H23        -1.7854   -3.0318   -5.7362 H         1 <0>         0.1018
@<TRIPOS>BOND
     1    1    2 1
     2    1   34 1
     3    1   35 1
     4    1   36 1
     5    2    3 1
     6    2   11 am
     7    3    4 1
     8    3   37 1
     9    3   38 1
    10    4    5 1
    11    4   39 1
    12    4   40 1
    13    5   10 1
    14    5    6 2
    15    6    7 1
    16    6   41 1
    17    7    8 1
    18    7    9 1
    19    9   10 2
    20    9   42 1
    21   11   12 2
    22   11   13 1
    23   13   18 ar
    24   13   14 ar
    25   14   15 ar
    26   14   43 1
    27   15   16 ar
    28   15   44 1
    29   16   25 1
    30   16   17 ar
    31   17   18 ar
    32   17   19 1
    33   18   45 1
    34   19   24 ar
    35   19   20 ar
    36   20   33 1
    37   20   21 ar
    38   21   22 ar
    39   21   30 1
    40   22   29 1
    41   22   23 ar
    42   23   24 ar
    43   23   27 1
    44   24   25 1
    45   25   26 1
    46   27   28 1
    47   27   46 1
    48   27   47 1
    49   28   29 1
    50   28   48 1
    51   28   49 1
    52   29   50 1
    53   29   51 1
    54   30   31 2
    55   30   32 am
    56   32   33 1
    57   32   52 1
    58   33   53 1
    59   33   54 1
@<TRIPOS>MOLECULE
CHEMBL203884__2
   54    59     0     0     0
SMALL
USER_CHARGES

@<TRIPOS>ATOM
      1 C1         -1.2470    1.1553   -0.1453 C.3       1 <0>         0.0686
      2 N1         -0.5790   -0.1464   -0.0711 N.am      1 <0>        -0.6134
      3 C2         -0.4438   -0.8279    1.2187 C.3       1 <0>         0.1226
      4 C3         -1.6605   -1.7261    1.4509 C.3       1 <0>        -0.0583
      5 C4         -1.5215   -2.4271    2.7777 C.2       1 <0>        -0.0231
      6 C5         -1.8751   -1.9417    3.9830 C.2       1 <0>        -0.0208
      7 N2         -1.5896   -2.8727    4.9053 N.2       1 <0>        -0.4942
      8 H1         -0.6801   -4.2883    2.3105 H         1 <0>         0.4209
      9 C6         -1.0725   -3.9167    4.3173 C.2       1 <0>         0.1862
     10 N3         -1.0170   -3.6820    2.9886 N.pl3     1 <0>        -0.5651
     11 C7         -0.0887   -0.7170   -1.1894 C.2       1 <0>         0.5663
     12 O1          0.3700   -1.8422   -1.1468 O.2       1 <0>        -0.5337
     13 C8         -0.1087    0.0242   -2.4658 C.ar      1 <0>        -0.1644
     14 C9          0.0896    1.4104   -2.4749 C.ar      1 <0>        -0.0565
     15 C10         0.0731    2.1057   -3.6480 C.ar      1 <0>        -0.1423
     16 C11        -0.1415    1.4441   -4.8566 C.ar      1 <0>         0.1625
     17 C12        -0.3417    0.0534   -4.8580 C.ar      1 <0>        -0.1064
     18 C13        -0.3191   -0.6555   -3.6643 C.ar      1 <0>         0.0010
     19 C14        -0.5386   -0.3371   -6.2674 C.ar      1 <0>        -0.0871
     20 C15        -0.7774   -1.5434   -6.9032 C.ar      1 <0>        -0.0205
     21 C16        -0.9207   -1.5833   -8.2885 C.ar      1 <0>        -0.1747
     22 C17        -0.8222   -0.3977   -9.0359 C.ar      1 <0>         0.0151
     23 C18        -0.5872    0.7922   -8.4118 C.ar      1 <0>        -0.1287
     24 C19        -0.4424    0.8436   -7.0222 C.ar      1 <0>         0.1875
     25 N4         -0.2056    1.8939   -6.1595 N.pl3     1 <0>        -0.6028
     26 H2         -0.0995    2.8191   -6.4308 H         1 <0>         0.4232
     27 C20        -0.5256    1.9099   -9.4327 C.3       1 <0>        -0.0767
     28 C21        -0.3166    1.2041  -10.7893 C.3       1 <0>        -0.1200
     29 C22        -0.9396   -0.1843  -10.5312 C.3       1 <0>        -0.0871
     30 C23        -1.1641   -2.9806   -8.6887 C.2       1 <0>         0.5649
     31 O2         -1.3322   -3.3561   -9.8328 O.2       1 <0>        -0.5246
     32 N5         -1.1734   -3.7809   -7.6087 N.am      1 <0>        -0.7250
     33 C24        -0.9353   -2.9615   -6.4148 C.3       1 <0>         0.1391
     34 H3         -0.5290    1.9452    0.0750 H         1 <0>         0.0623
     35 H4         -1.6504    1.3000   -1.1475 H         1 <0>         0.0828
     36 H5         -2.0587    1.1890    0.5814 H         1 <0>         0.0746
     37 H6          0.4610   -1.4356    1.2155 H         1 <0>         0.0836
     38 H7         -0.3814   -0.0874    2.0161 H         1 <0>         0.0862
     39 H8         -2.5654   -1.1184    1.4541 H         1 <0>         0.0892
     40 H9         -1.7230   -2.4666    0.6535 H         1 <0>         0.0762
     41 H10        -2.3120   -0.9726    4.1736 H         1 <0>         0.1688
     42 H11        -0.7462   -4.8201    4.8111 H         1 <0>         0.2086
     43 H12         0.2565    1.9334   -1.5449 H         1 <0>         0.1421
     44 H13         0.2269    3.1747   -3.6409 H         1 <0>         0.1338
     45 H14        -0.4680   -1.7252   -3.6641 H         1 <0>         0.1356
     46 H15        -1.4607    2.4700   -9.4375 H         1 <0>         0.0822
     47 H16         0.3125    2.5729   -9.2179 H         1 <0>         0.0737
     48 H17        -0.8472    1.7266  -11.5854 H         1 <0>         0.0827
     49 H18         0.7445    1.1169  -11.0230 H         1 <0>         0.0763
     50 H19        -0.3848   -0.9538  -11.0681 H         1 <0>         0.0883
     51 H20        -1.9868   -0.1913  -10.8335 H         1 <0>         0.0902
     52 H21        -1.3139   -4.7406   -7.6172 H         1 <0>         0.4268
     53 H22        -0.0253   -3.2881   -5.9114 H         1 <0>         0.1023
     54 H23        -1.7854   -3.0318   -5.7362 H         1 <0>         0.1011
@<TRIPOS>BOND
     1    1    2 1
     2    1   34 1
     3    1   35 1
     4    1   36 1
     5    2    3 1
     6    2   11 am
     7    3    4 1
     8    3   37 1
     9    3   38 1
    10    4   39 1
    11    4   40 1
    12    4    5 1
    13    5    6 2
    14    5   10 1
    15    6    7 1
    16    6   41 1
    17    7    9 2
    18    8   10 1
    19    9   42 1
    20    9   10 1
    21   11   12 2
    22   11   13 1
    23   13   18 ar
    24   13   14 ar
    25   14   15 ar
    26   14   43 1
    27   15   16 ar
    28   15   44 1
    29   16   25 1
    30   16   17 ar
    31   17   18 ar
    32   17   19 1
    33   18   45 1
    34   19   24 ar
    35   19   20 ar
    36   20   33 1
    37   20   21 ar
    38   21   22 ar
    39   21   30 1
    40   22   29 1
    41   22   23 ar
    42   23   24 ar
    43   23   27 1
    44   24   25 1
    45   25   26 1
    46   27   28 1
    47   27   46 1
    48   27   47 1
    49   28   29 1
    50   28   48 1
    51   28   49 1
    52   29   50 1
    53   29   51 1
    54   30   31 2
    55   30   32 am
    56   32   33 1
    57   32   52 1
    58   33   53 1
    59   33   54 1
@<TRIPOS>MOLECULE
CHEMBL493306
   58    62     0     0     0
SMALL
USER_CHARGES

@<TRIPOS>ATOM
      1 C1          4.9264   -2.6670   -8.7736 C.ar      1 <0>        -0.0938
      2 C2          4.1982   -1.6113   -8.2544 C.ar      1 <0>        -0.1235
      3 C3          3.2957   -1.8278   -7.2337 C.ar      1 <0>        -0.0626
      4 C4          3.1180   -3.1153   -6.7249 C.ar      1 <0>        -0.1336
      5 C5          3.8557   -4.1758   -7.2531 C.ar      1 <0>        -0.0987
      6 C6          4.7550   -3.9457   -8.2737 C.ar      1 <0>        -0.1254
      7 C7          2.1529   -3.3545   -5.6307 C.2       1 <0>         0.5628
      8 O1          1.1347   -2.6939   -5.5631 O.2       1 <0>        -0.5283
      9 N1          2.4019   -4.3050   -4.7083 N.am      1 <0>        -0.6088
     10 C8          3.6828   -5.0257   -4.7039 C.3       1 <0>         0.0740
     11 C9          4.3235   -4.8778   -3.3183 C.3       1 <0>         0.0875
     12 N2          3.3194   -5.2118   -2.2985 N.am      1 <0>        -0.6081
     13 C10         2.0386   -4.4912   -2.3029 C.3       1 <0>         0.0988
     14 C11         1.4000   -4.6351   -3.6850 C.3       1 <0>         0.0983
     15 C12         3.5685   -6.1623   -1.3760 C.2       1 <0>         0.5658
     16 O2          2.6988   -6.4927   -0.5935 O.2       1 <0>        -0.5160
     17 C13         4.8981   -6.8026   -1.3158 C.ar      1 <0>        -0.1624
     18 C14         6.0509   -6.0192   -1.2277 C.ar      1 <0>        -0.0473
     19 C15         7.2889   -6.6230   -1.1714 C.ar      1 <0>        -0.0903
     20 C16         7.3930   -8.0034   -1.2024 C.ar      1 <0>        -0.0511
     21 C17         6.2582   -8.7873   -1.2899 C.ar      1 <0>        -0.1524
     22 C18         5.0086   -8.1962   -1.3410 C.ar      1 <0>         0.1494
     23 F1          3.8990   -8.9628   -1.4210 F         1 <0>        -0.1242
     24 C19         8.5330   -5.7780   -1.0762 C.3       1 <0>        -0.0165
     25 C20         8.8649   -5.5339    0.3734 C.2       1 <0>         0.1356
     26 C21        10.0334   -4.7294    0.7307 C.ar      1 <0>        -0.0603
     27 C22        10.8669   -4.1691   -0.2391 C.ar      1 <0>        -0.0978
     28 C23        11.9469   -3.4245    0.1451 C.ar      1 <0>        -0.0871
     29 C24        12.2286   -3.2167    1.4892 C.ar      1 <0>        -0.1101
     30 C25        11.4242   -3.7575    2.4682 C.ar      1 <0>        -0.0542
     31 C26        10.3164   -4.5198    2.0998 C.ar      1 <0>        -0.1252
     32 C27         9.4204   -5.1220    3.0946 C.2       1 <0>         0.5283
     33 O3          9.6233   -4.9689    4.2859 O.2       1 <0>        -0.5192
     34 N3          8.3675   -5.8481    2.6643 N.am      1 <0>        -0.5331
     35 H1          7.7719   -6.2485    3.3169 H         1 <0>         0.4374
     36 N4          8.1099   -6.0337    1.3058 N.2       1 <0>        -0.2204
     37 H2          5.6283   -2.4929   -9.5757 H         1 <0>         0.1289
     38 H3          4.3369   -0.6155   -8.6488 H         1 <0>         0.1314
     39 H4          2.7282   -1.0028   -6.8291 H         1 <0>         0.1328
     40 H5          3.7231   -5.1744   -6.8635 H         1 <0>         0.1354
     41 H6          5.3265   -4.7654   -8.6833 H         1 <0>         0.1311
     42 H7          3.5096   -6.0807   -4.9162 H         1 <0>         0.0795
     43 H8          4.3437   -4.6016   -5.4597 H         1 <0>         0.1178
     44 H9          5.1715   -5.5573   -3.2330 H         1 <0>         0.1036
     45 H10         4.6593   -3.8504   -3.1783 H         1 <0>         0.0798
     46 H11         1.3776   -4.9153   -1.5470 H         1 <0>         0.1093
     47 H12         2.2117   -3.4362   -2.0906 H         1 <0>         0.0772
     48 H13         0.5538   -3.9531   -3.7681 H         1 <0>         0.1093
     49 H14         1.0606   -5.6617   -3.8231 H         1 <0>         0.0768
     50 H15         5.9727   -4.9423   -1.2040 H         1 <0>         0.1359
     51 H16         8.3661   -8.4698   -1.1582 H         1 <0>         0.1382
     52 H17         6.3469   -9.8633   -1.3144 H         1 <0>         0.1446
     53 H18         9.3625   -6.2971   -1.5564 H         1 <0>         0.1118
     54 H19         8.3634   -4.8241   -1.5757 H         1 <0>         0.1091
     55 H20        10.6596   -4.3236   -1.2877 H         1 <0>         0.1420
     56 H21        12.5902   -2.9921   -0.6069 H         1 <0>         0.1369
     57 H22        13.0875   -2.6252    1.7698 H         1 <0>         0.1377
     58 H23        11.6496   -3.5925    3.5114 H         1 <0>         0.1436
@<TRIPOS>BOND
     1    1    6 ar
     2    1    2 ar
     3    1   37 1
     4    2    3 ar
     5    2   38 1
     6    3    4 ar
     7    3   39 1
     8    4    5 ar
     9    4    7 1
    10    5    6 ar
    11    5   40 1
    12    6   41 1
    13    7    8 2
    14    7    9 am
    15    9   14 1
    16    9   10 1
    17   10   11 1
    18   10   42 1
    19   10   43 1
    20   11   12 1
    21   11   44 1
    22   11   45 1
    23   12   13 1
    24   12   15 am
    25   13   14 1
    26   13   46 1
    27   13   47 1
    28   14   48 1
    29   14   49 1
    30   15   16 2
    31   15   17 1
    32   17   22 ar
    33   17   18 ar
    34   18   19 ar
    35   18   50 1
    36   19   20 ar
    37   19   24 1
    38   20   21 ar
    39   20   51 1
    40   21   22 ar
    41   21   52 1
    42   22   23 1
    43   24   25 1
    44   24   53 1
    45   24   54 1
    46   25   36 2
    47   25   26 1
    48   26   31 ar
    49   26   27 ar
    50   27   28 ar
    51   27   55 1
    52   28   29 ar
    53   28   56 1
    54   29   30 ar
    55   29   57 1
    56   30   31 ar
    57   30   58 1
    58   31   32 1
    59   32   33 2
    60   32   34 am
    61   34   35 1
    62   34   36 1
@<TRIPOS>MOLECULE
CHEMBL189698
   28    30     0     0     0
SMALL
USER_CHARGES

@<TRIPOS>ATOM
      1 C1         -0.0166    1.3760    0.0096 C.ar      1 <0>        -0.1528
      2 C2          1.1633    2.0917    0.0022 C.ar      1 <0>        -0.0303
      3 C3          2.3814    1.4169    0.0311 C.ar      1 <0>        -0.0892
      4 C4          3.7867    1.8623    0.0328 C.2       1 <0>        -0.1425
      5 C5          4.5446    0.7393    0.1211 C.2       1 <0>         0.1087
      6 N1          3.7410   -0.3628    0.1793 N.pl3     1 <0>        -0.4740
      7 C6          2.4164    0.0140    0.0571 C.ar      1 <0>         0.1253
      8 C7          1.2132   -0.7042   -0.0183 C.ar      1 <0>        -0.1463
      9 C8          0.0021   -0.0041    0.0020 C.ar      1 <0>        -0.0296
     10 C9          1.1796   -2.1584   -0.1967 C.2       1 <0>         0.5625
     11 O1          0.2540   -2.6217   -0.8348 O.2       1 <0>        -0.5354
     12 N2          2.0904   -3.0229    0.2881 N.am      1 <0>        -0.7223
     13 C10         3.1955   -2.5834    1.1071 C.3       1 <0>         0.0950
     14 C11         4.1861   -1.7287    0.3615 C.3       1 <0>         0.0828
     15 C12         4.2720    3.2493   -0.0461 C.2       1 <0>         0.1816
     16 N3          3.4265    4.2278   -0.1275 N.2       1 <0>        -0.3396
     17 O2          3.8935    5.5625   -0.2034 O.3       1 <0>        -0.4152
     18 H1         -0.9612    1.8994    0.0260 H         1 <0>         0.1354
     19 H2          1.1423    3.1711   -0.0263 H         1 <0>         0.1384
     20 H3          5.6242    0.7205    0.1418 H         1 <0>         0.1837
     21 H4         -0.9296   -0.5502    0.0119 H         1 <0>         0.1379
     22 H5          2.0019   -3.9666    0.0820 H         1 <0>         0.4100
     23 H6          2.8022   -2.0114    1.9475 H         1 <0>         0.0796
     24 H7          3.7131   -3.4604    1.4960 H         1 <0>         0.1128
     25 H8          4.3633   -2.1725   -0.6182 H         1 <0>         0.0837
     26 H9          5.1258   -1.7197    0.9137 H         1 <0>         0.1091
     27 H10         5.3328    3.4516   -0.0362 H         1 <0>         0.1249
     28 H11         3.1894    6.2228   -0.2612 H         1 <0>         0.4059
@<TRIPOS>BOND
     1    1    9 ar
     2    1    2 ar
     3    1   18 1
     4    2    3 ar
     5    2   19 1
     6    3    7 ar
     7    3    4 1
     8    4    5 2
     9    4   15 1
    10    5    6 1
    11    5   20 1
    12    6   14 1
    13    6    7 1
    14    7    8 ar
    15    8    9 ar
    16    8   10 1
    17    9   21 1
    18   10   11 2
    19   10   12 am
    20   12   13 1
    21   12   22 1
    22   13   14 1
    23   13   23 1
    24   13   24 1
    25   14   25 1
    26   14   26 1
    27   15   16 2
    28   15   27 1
    29   16   17 1
    30   17   28 1
@<TRIPOS>MOLECULE
CHEMBL425201
   53    56     0     0     0
SMALL
USER_CHARGES

@<TRIPOS>ATOM
      1 C1         -0.0167    1.3792    0.0096 C.ar      1 <0>        -0.1027
      2 C2          1.1683    2.0931    0.0021 C.ar      1 <0>        -0.1154
      3 C3          2.3774    1.4286   -0.0134 C.ar      1 <0>        -0.1020
      4 C4          2.4032    0.0335   -0.0212 C.ar      1 <0>        -0.0840
      5 C5          1.2045   -0.6806   -0.0131 C.ar      1 <0>        -0.1011
      6 C6          0.0021   -0.0041    0.0020 C.ar      1 <0>        -0.1148
      7 C7          3.6950   -0.6848   -0.0384 C.2       1 <0>        -0.0448
      8 C8          4.4943   -0.5772    1.0009 C.2       1 <0>        -0.1901
      9 C9          5.8233   -1.2710    1.0843 C.3       1 <0>         0.0345
     10 N1          6.2689   -1.6856   -0.2511 N.4       1 <0>        -0.3867
     11 C10         5.1971   -2.4623   -0.8938 C.3       1 <0>        -0.0036
     12 C11         4.0456   -1.5174   -1.2408 C.3       1 <0>        -0.1140
     13 C12         7.4741   -2.5169   -0.1311 C.3       1 <0>        -0.0092
     14 C13         8.6201   -1.6750    0.4337 C.3       1 <0>        -0.1514
     15 C14         9.8754   -2.5408    0.5587 C.3       1 <0>        -0.1116
     16 C15        11.0214   -1.6990    1.1235 C.3       1 <0>        -0.0567
     17 C16        12.2578   -2.5517    1.2465 C.2       1 <0>         0.1383
     18 C17        13.4953   -1.9741    1.7714 C.ar      1 <0>        -0.0686
     19 C18        13.5741   -0.6384    2.1700 C.ar      1 <0>        -0.0982
     20 C19        14.7533   -0.1453    2.6545 C.ar      1 <0>        -0.0866
     21 C20        15.8773   -0.9549    2.7561 C.ar      1 <0>        -0.1052
     22 C21        15.8293   -2.2765    2.3701 C.ar      1 <0>        -0.0531
     23 C22        14.6369   -2.8016    1.8737 C.ar      1 <0>        -0.1242
     24 C23        14.5209   -4.2014    1.4468 C.2       1 <0>         0.5286
     25 O1         15.4772   -4.9528    1.5167 O.2       1 <0>        -0.5113
     26 N2         13.3349   -4.6401    0.9761 N.am      1 <0>        -0.5348
     27 H1         13.2520   -5.5640    0.6925 H         1 <0>         0.4375
     28 N3         12.2231   -3.8015    0.8914 N.2       1 <0>        -0.2379
     29 H2         -0.9604    1.9041    0.0260 H         1 <0>         0.1298
     30 H3          1.1469    3.1729    0.0082 H         1 <0>         0.1301
     31 H4          3.3018    1.9870   -0.0200 H         1 <0>         0.1238
     32 H5          1.2178   -1.7605   -0.0194 H         1 <0>         0.1243
     33 H6         -0.9265   -0.5556    0.0079 H         1 <0>         0.1303
     34 H7          4.1807    0.0380    1.8312 H         1 <0>         0.1505
     35 H8          6.5585   -0.5912    1.5147 H         1 <0>         0.1406
     36 H9          5.7318   -2.1497    1.7228 H         1 <0>         0.1385
     37 H10         5.5771   -2.9272   -1.8035 H         1 <0>         0.1378
     38 H11         4.8408   -3.2312   -0.2083 H         1 <0>         0.1326
     39 H12         3.1757   -2.0990   -1.5459 H         1 <0>         0.1249
     40 H13         4.3502   -0.8642   -2.0585 H         1 <0>         0.1072
     41 H14         7.2735   -3.3533    0.5384 H         1 <0>         0.1320
     42 H15         7.7527   -2.8970   -1.1140 H         1 <0>         0.1338
     43 H16         8.8208   -0.8386   -0.2358 H         1 <0>         0.0895
     44 H17         8.3416   -1.2949    1.4166 H         1 <0>         0.0892
     45 H18         9.6748   -3.3772    1.2282 H         1 <0>         0.0836
     46 H19        10.1540   -2.9209   -0.4242 H         1 <0>         0.0838
     47 H20        11.2220   -0.8626    0.4539 H         1 <0>         0.0991
     48 H21        10.7428   -1.3189    2.1063 H         1 <0>         0.0988
     49 H22        12.7077    0.0021    2.0955 H         1 <0>         0.1388
     50 H23        14.8119    0.8883    2.9622 H         1 <0>         0.1381
     51 H24        16.7987   -0.5439    3.1415 H         1 <0>         0.1407
     52 H25        16.7074   -2.9001    2.4512 H         1 <0>         0.1461
     53 H26         6.4742   -0.8691   -0.8071 H         1 <0>         0.4254
@<TRIPOS>BOND
     1    1    6 ar
     2    1    2 ar
     3    1   29 1
     4    2    3 ar
     5    2   30 1
     6    3    4 ar
     7    3   31 1
     8    4    5 ar
     9    4    7 1
    10    5    6 ar
    11    5   32 1
    12    6   33 1
    13    7   12 1
    14    7    8 2
    15    8    9 1
    16    8   34 1
    17    9   10 1
    18    9   35 1
    19    9   36 1
    20   10   11 1
    21   10   13 1
    22   10   53 1
    23   11   12 1
    24   11   37 1
    25   11   38 1
    26   12   39 1
    27   12   40 1
    28   13   14 1
    29   13   41 1
    30   13   42 1
    31   14   15 1
    32   14   43 1
    33   14   44 1
    34   15   16 1
    35   15   45 1
    36   15   46 1
    37   16   17 1
    38   16   47 1
    39   16   48 1
    40   17   28 2
    41   17   18 1
    42   18   23 ar
    43   18   19 ar
    44   19   20 ar
    45   19   49 1
    46   20   21 ar
    47   20   50 1
    48   21   22 ar
    49   21   51 1
    50   22   23 ar
    51   22   52 1
    52   23   24 1
    53   24   25 2
    54   24   26 am
    55   26   27 1
    56   26   28 1
@<TRIPOS>MOLECULE
CHEMBL194416
   24    25     0     0     0
SMALL
USER_CHARGES

@<TRIPOS>ATOM
      1 C1         -0.0184    1.5028    0.0103 C.3       1 <0>        -0.1043
      2 C2          0.0021   -0.0041    0.0020 C.2       1 <0>         0.3755
      3 N1         -1.1147   -0.6580    0.0038 N.2       1 <0>        -0.5342
      4 C3         -1.0897   -2.1160    0.0104 C.3       1 <0>         0.0674
      5 C4         -2.4391   -2.7293    0.3033 C.3       1 <0>        -0.0956
      6 C5         -2.9772   -2.2706    1.6608 C.3       1 <0>        -0.0797
      7 S1         -1.8154   -2.8218    2.9474 S.3       1 <0>        -0.2416
      8 C6         -0.2294   -2.1504    2.3715 C.3       1 <0>        -0.0775
      9 C7          0.0236   -2.6089    0.9290 C.3       1 <0>        -0.1219
     10 C8          1.3035   -1.9290    0.4655 C.2       1 <0>         0.5243
     11 O1          2.3719   -2.4999    0.5189 O.2       1 <0>        -0.4967
     12 N2          1.2082   -0.6670   -0.0131 N.am      1 <0>        -0.6947
     13 H1          1.0042    1.8801    0.0026 H         1 <0>         0.0810
     14 H2         -0.5455    1.8639   -0.8728 H         1 <0>         0.0966
     15 H3         -0.5286    1.8543    0.9071 H         1 <0>         0.0966
     16 H4         -0.8242   -2.4289   -0.9994 H         1 <0>         0.0779
     17 H5         -3.1414   -2.4351   -0.4766 H         1 <0>         0.0882
     18 H6         -2.3445   -3.8151    0.3056 H         1 <0>         0.0861
     19 H7         -3.0556   -1.1836    1.6772 H         1 <0>         0.0957
     20 H8         -3.9576   -2.7134    1.8364 H         1 <0>         0.1096
     21 H9         -0.2612   -1.0614    2.4065 H         1 <0>         0.0865
     22 H10         0.5734   -2.5119    3.0141 H         1 <0>         0.1141
     23 H11         0.1115   -3.6942    0.8798 H         1 <0>         0.1332
     24 H12         1.9955   -0.2243   -0.3667 H         1 <0>         0.4135
@<TRIPOS>BOND
     1    1    2 1
     2    1   13 1
     3    1   14 1
     4    1   15 1
     5    2   12 1
     6    2    3 2
     7    3    4 1
     8    4    9 1
     9    4    5 1
    10    4   16 1
    11    5    6 1
    12    5   17 1
    13    5   18 1
    14    6    7 1
    15    6   19 1
    16    6   20 1
    17    7    8 1
    18    8    9 1
    19    8   21 1
    20    8   22 1
    21    9   10 1
    22    9   23 1
    23   10   11 2
    24   10   12 am
    25   12   24 1
@<TRIPOS>MOLECULE
CHEMBL194416__1
   24    25     0     0     0
SMALL
USER_CHARGES

@<TRIPOS>ATOM
      1 C1         -0.0184    1.5028    0.0103 C.3       1 <0>        -0.1056
      2 C2          0.0021   -0.0041    0.0020 C.2       1 <0>         0.3854
      3 N1         -1.1136   -0.6411    0.0039 N.2       1 <0>        -0.5481
      4 C3         -1.1715   -2.0986   -0.0351 C.3       1 <0>         0.0782
      5 C4         -2.4726   -2.5969    0.5876 C.3       1 <0>        -0.1009
      6 C5         -2.6880   -4.0692    0.2221 C.3       1 <0>        -0.0868
      7 S1         -1.3259   -5.0519    0.9175 S.3       1 <0>        -0.2462
      8 C6          0.1571   -4.1850    0.3200 C.3       1 <0>        -0.0654
      9 C7          0.0313   -2.7020    0.6830 C.3       1 <0>        -0.1335
     10 C8          1.2826   -1.9689    0.2743 C.2       1 <0>         0.5259
     11 O1          2.3406   -2.5564    0.1996 O.2       1 <0>        -0.4998
     12 N2          1.2124   -0.6522   -0.0130 N.am      1 <0>        -0.6902
     13 H1          1.0042    1.8801    0.0026 H         1 <0>         0.0802
     14 H2         -0.5455    1.8639   -0.8728 H         1 <0>         0.0962
     15 H3         -0.5286    1.8543    0.9071 H         1 <0>         0.0972
     16 H4         -1.1540   -2.4208   -1.0763 H         1 <0>         0.0829
     17 H5         -2.4178   -2.4965    1.6716 H         1 <0>         0.0811
     18 H6         -3.3058   -2.0038    0.2105 H         1 <0>         0.0939
     19 H7         -3.6355   -4.4136    0.6365 H         1 <0>         0.1159
     20 H8         -2.7005   -4.1782   -0.8624 H         1 <0>         0.0876
     21 H9          1.0435   -4.6047    0.7958 H         1 <0>         0.1230
     22 H10         0.2331   -4.2921   -0.7621 H         1 <0>         0.0902
     23 H11        -0.1038   -2.6036    1.7601 H         1 <0>         0.1241
     24 H12         2.0204   -0.1603   -0.2276 H         1 <0>         0.4146
@<TRIPOS>BOND
     1    1    2 1
     2    1   13 1
     3    1   14 1
     4    1   15 1
     5    2   12 1
     6    2    3 2
     7    3    4 1
     8    4    9 1
     9    4    5 1
    10    4   16 1
    11    5    6 1
    12    5   17 1
    13    5   18 1
    14    6    7 1
    15    6   19 1
    16    6   20 1
    17    7    8 1
    18    8    9 1
    19    8   21 1
    20    8   22 1
    21    9   10 1
    22    9   23 1
    23   10   11 2
    24   10   12 am
    25   12   24 1
@<TRIPOS>MOLECULE
CHEMBL194416__2
   24    25     0     0     0
SMALL
USER_CHARGES

@<TRIPOS>ATOM
      1 C1         -0.0184    1.5028    0.0103 C.3       1 <0>        -0.1055
      2 C2          0.0021   -0.0041    0.0020 C.2       1 <0>         0.3856
      3 N1         -1.1136   -0.6411    0.0039 N.2       1 <0>        -0.5481
      4 C3         -1.1712   -2.0990    0.0267 C.3       1 <0>         0.0782
      5 C4         -2.4785   -2.5901   -0.5886 C.3       1 <0>        -0.1009
      6 C5         -2.6903   -4.0665   -0.2379 C.3       1 <0>        -0.0867
      7 S1         -1.3353   -5.0410   -0.9583 S.3       1 <0>        -0.2465
      8 C6          0.1537   -4.1810   -0.3657 C.3       1 <0>        -0.0653
      9 C7          0.0243   -2.6940   -0.7103 C.3       1 <0>        -0.1341
     10 C8          1.2797   -1.9656   -0.3058 C.2       1 <0>         0.5260
     11 O1          2.3385   -2.5537   -0.2492 O.2       1 <0>        -0.5002
     12 N2          1.2124   -0.6522   -0.0130 N.am      1 <0>        -0.6895
     13 H1          1.0042    1.8801    0.0026 H         1 <0>         0.0803
     14 H2         -0.5455    1.8639   -0.8728 H         1 <0>         0.0974
     15 H3         -0.5286    1.8543    0.9071 H         1 <0>         0.0963
     16 H4         -1.1433   -2.4331    1.0639 H         1 <0>         0.0830
     17 H5         -3.3078   -2.0014   -0.1963 H         1 <0>         0.0939
     18 H6         -2.4346   -2.4772   -1.6719 H         1 <0>         0.0810
     19 H7         -2.6919   -4.1880    0.8453 H         1 <0>         0.0876
     20 H8         -3.6420   -4.4062   -0.6468 H         1 <0>         0.1159
     21 H9          0.2405   -4.3006    0.7142 H         1 <0>         0.0902
     22 H10         1.0352   -4.5951   -0.8552 H         1 <0>         0.1230
     23 H11        -0.1216   -2.5831   -1.7848 H         1 <0>         0.1241
     24 H12         2.0243   -0.1627    0.1920 H         1 <0>         0.4144
@<TRIPOS>BOND
     1    1    2 1
     2    1   13 1
     3    1   14 1
     4    1   15 1
     5    2   12 1
     6    2    3 2
     7    3    4 1
     8    4    9 1
     9    4    5 1
    10    4   16 1
    11    5    6 1
    12    5   17 1
    13    5   18 1
    14    6    7 1
    15    6   19 1
    16    6   20 1
    17    7    8 1
    18    8    9 1
    19    8   21 1
    20    8   22 1
    21    9   10 1
    22    9   23 1
    23   10   11 2
    24   10   12 am
    25   12   24 1
@<TRIPOS>MOLECULE
CHEMBL194416__3
   24    25     0     0     0
SMALL
USER_CHARGES

@<TRIPOS>ATOM
      1 C1         -0.0184    1.5028    0.0103 C.3       1 <0>        -0.1041
      2 C2          0.0021   -0.0041    0.0020 C.2       1 <0>         0.3756
      3 N1         -1.1147   -0.6580    0.0038 N.2       1 <0>        -0.5341
      4 C3         -1.0898   -2.1159   -0.0199 C.3       1 <0>         0.0673
      5 C4         -2.4421   -2.7257   -0.3065 C.3       1 <0>        -0.0956
      6 C5         -2.9936   -2.2515   -1.6531 C.3       1 <0>        -0.0796
      7 S1         -1.8447   -2.7877   -2.9575 S.3       1 <0>        -0.2417
      8 C6         -0.2530   -2.1229   -2.3896 C.3       1 <0>        -0.0773
      9 C7          0.0143   -2.5980   -0.9552 C.3       1 <0>        -0.1227
     10 C8          1.2987   -1.9235   -0.4965 C.2       1 <0>         0.5243
     11 O1          2.3665   -2.4937   -0.5671 O.2       1 <0>        -0.4976
     12 N2          1.2082   -0.6670   -0.0131 N.am      1 <0>        -0.6933
     13 H1          1.0042    1.8801    0.0026 H         1 <0>         0.0811
     14 H2         -0.5455    1.8639   -0.8728 H         1 <0>         0.0968
     15 H3         -0.5286    1.8543    0.9071 H         1 <0>         0.0967
     16 H4         -0.8144   -2.4404    0.9836 H         1 <0>         0.0780
     17 H5         -2.3476   -3.8115   -0.3222 H         1 <0>         0.0862
     18 H6         -3.1367   -2.4407    0.4837 H         1 <0>         0.0882
     19 H7         -3.9758   -2.6923   -1.8241 H         1 <0>         0.1096
     20 H8         -3.0721   -1.1644   -1.6562 H         1 <0>         0.0956
     21 H9          0.5433   -2.4769   -3.0443 H         1 <0>         0.1140
     22 H10        -0.2851   -1.0336   -2.4118 H         1 <0>         0.0864
     23 H11         0.1026   -3.6839   -0.9193 H         1 <0>         0.1330
     24 H12         2.0022   -0.2281    0.3303 H         1 <0>         0.4132
@<TRIPOS>BOND
     1    1    2 1
     2    1   13 1
     3    1   14 1
     4    1   15 1
     5    2   12 1
     6    2    3 2
     7    3    4 1
     8    4    9 1
     9    4    5 1
    10    4   16 1
    11    5    6 1
    12    5   17 1
    13    5   18 1
    14    6    7 1
    15    6   19 1
    16    6   20 1
    17    7    8 1
    18    8    9 1
    19    8   21 1
    20    8   22 1
    21    9   10 1
    22    9   23 1
    23   10   11 2
    24   10   12 am
    25   12   24 1
@<TRIPOS>MOLECULE
CHEMBL597541
   57    60     0     0     0
SMALL
USER_CHARGES

@<TRIPOS>ATOM
      1 C1          0.0585    1.5403    0.0046 C.3       1 <0>        -0.1247
      2 C2          0.0835    0.0336   -0.0151 C.2       1 <0>        -0.0464
      3 C3          0.1078   -0.6510   -1.1969 C.2       1 <0>        -0.1521
      4 C4          0.1303   -2.0613   -1.1406 C.2       1 <0>         0.4821
      5 O1          0.1528   -2.7193   -2.1684 O.2       1 <0>        -0.5239
      6 N1          0.1271   -2.6732    0.0591 N.am      1 <0>        -0.4487
      7 H1          0.1425   -3.6424    0.0956 H         1 <0>         0.4410
      8 N2          0.1044   -2.0060    1.1558 N.2       1 <0>        -0.2120
      9 C5          0.0882   -0.7022    1.1814 C.2       1 <0>         0.0651
     10 C6          0.0687    0.0199    2.5040 C.3       1 <0>        -0.0109
     11 C7          0.0782   -0.9863    3.6259 C.ar      1 <0>        -0.0835
     12 C8         -1.1176   -1.4706    4.1285 C.ar      1 <0>        -0.0500
     13 C9         -1.1197   -2.3935    5.1572 C.ar      1 <0>        -0.1503
     14 C10         0.0755   -2.8400    5.6915 C.ar      1 <0>         0.1464
     15 C11         1.2860   -2.3545    5.1874 C.ar      1 <0>        -0.1689
     16 C12         1.2775   -1.4256    4.1445 C.ar      1 <0>        -0.0504
     17 C13         2.5671   -2.8251    5.7518 C.2       1 <0>         0.5690
     18 O2          2.8016   -4.0162    5.8169 O.2       1 <0>        -0.5083
     19 N3          3.4762   -1.9340    6.1946 N.am      1 <0>        -0.6134
     20 C14         4.8059   -2.3779    6.6349 C.3       1 <0>         0.1101
     21 C15         5.0561   -1.8516    8.0524 C.3       1 <0>        -0.1280
     22 C16         4.8440   -0.3413    8.0775 C.3       1 <0>        -0.0753
     23 C17         5.8496    0.3470    7.1329 C.3       1 <0>        -0.1464
     24 C18         6.2519    1.6175    7.9250 C.3       1 <0>        -0.0035
     25 N4          6.2894    1.1444    9.3328 N.4       1 <0>        -0.5169
     26 C19         5.1468    0.2147    9.4770 C.3       1 <0>        -0.0016
     27 C20         3.4180    0.0115    7.6664 C.3       1 <0>        -0.1288
     28 C21         3.1578   -0.5003    6.2403 C.3       1 <0>         0.1013
     29 F1          0.0733   -3.7418    6.6975 F         1 <0>        -0.1251
     30 C22         0.1100    0.0754   -2.5173 C.3       1 <0>        -0.1022
     31 H2          1.0800    1.9205    0.0157 H         1 <0>         0.0870
     32 H3         -0.4559    1.9068   -0.8837 H         1 <0>         0.0841
     33 H4         -0.4666    1.8833    0.8961 H         1 <0>         0.0802
     34 H5          0.9480    0.6593    2.5819 H         1 <0>         0.1014
     35 H6         -0.8317    0.6306    2.5713 H         1 <0>         0.1059
     36 H7         -2.0535   -1.1251    3.7148 H         1 <0>         0.1396
     37 H8         -2.0562   -2.7665    5.5449 H         1 <0>         0.1460
     38 H9          2.2088   -1.0492    3.7477 H         1 <0>         0.1336
     39 H10         4.8454   -3.4672    6.6371 H         1 <0>         0.1045
     40 H11         5.5650   -1.9837    5.9594 H         1 <0>         0.0742
     41 H12         4.3617   -2.3277    8.7448 H         1 <0>         0.0849
     42 H13         6.0797   -2.0799    8.3495 H         1 <0>         0.0861
     43 H14         6.7163   -0.2911    6.9606 H         1 <0>         0.1032
     44 H15         5.3725    0.6148    6.1901 H         1 <0>         0.1201
     45 H16         7.2343    1.9709    7.6117 H         1 <0>         0.1390
     46 H17         5.5033    2.4003    7.8022 H         1 <0>         0.1360
     47 H18         7.1563    0.6610    9.5144 H         1 <0>         0.4322
     48 H19         4.2780    0.7493    9.8612 H         1 <0>         0.1361
     49 H20         5.4119   -0.5993   10.1517 H         1 <0>         0.1368
     50 H21         2.7149   -0.4545    8.3567 H         1 <0>         0.0857
     51 H22         3.2895    1.0936    7.6919 H         1 <0>         0.0866
     52 H23         3.7909    0.0374    5.5345 H         1 <0>         0.0768
     53 H24         2.1095   -0.3503    5.9820 H         1 <0>         0.1019
     54 H25         1.1380    0.2677   -2.8245 H         1 <0>         0.0803
     55 H26        -0.3855   -0.5377   -3.2701 H         1 <0>         0.0805
     56 H27        -0.4209    1.0215   -2.4124 H         1 <0>         0.0798
     57 H28         6.1854    1.9241    9.9647 H         1 <0>         0.4340
@<TRIPOS>BOND
     1    1    2 1
     2    1   31 1
     3    1   32 1
     4    1   33 1
     5    2    9 1
     6    2    3 2
     7    3    4 1
     8    3   30 1
     9    4    5 2
    10    4    6 am
    11    6    7 1
    12    6    8 1
    13    8    9 2
    14    9   10 1
    15   10   11 1
    16   10   34 1
    17   10   35 1
    18   11   16 ar
    19   11   12 ar
    20   12   13 ar
    21   12   36 1
    22   13   14 ar
    23   13   37 1
    24   14   15 ar
    25   14   29 1
    26   15   16 ar
    27   15   17 1
    28   16   38 1
    29   17   18 2
    30   17   19 am
    31   19   28 1
    32   19   20 1
    33   20   21 1
    34   20   39 1
    35   20   40 1
    36   21   22 1
    37   21   41 1
    38   21   42 1
    39   22   26 1
    40   22   23 1
    41   22   27 1
    42   23   24 1
    43   23   43 1
    44   23   44 1
    45   24   25 1
    46   24   45 1
    47   24   46 1
    48   25   26 1
    49   25   47 1
    50   25   57 1
    51   26   48 1
    52   26   49 1
    53   27   28 1
    54   27   50 1
    55   27   51 1
    56   28   52 1
    57   28   53 1
    58   30   54 1
    59   30   55 1
    60   30   56 1
@<TRIPOS>MOLECULE
CHEMBL597541__1
   56    59     0     0     0
SMALL
USER_CHARGES

@<TRIPOS>ATOM
      1 C1         -3.5972   -2.4714    0.0702 C.3       1 <0>        -0.1080
      2 C2         -3.6806   -1.1287   -0.6090 C.ar      1 <0>        -0.0675
      3 C3         -4.5879   -0.9017   -1.6329 C.ar      1 <0>        -0.1992
      4 C4         -4.6106    0.3626   -2.2155 C.ar      1 <0>         0.3659
      5 O1         -5.4808    0.6341   -3.2207 O.3       1 <0>        -0.6926
      6 N1         -3.7800    1.2988   -1.7845 N.ar      1 <0>        -0.3581
      7 N2         -2.9422    1.0833   -0.8364 N.ar      1 <0>        -0.2009
      8 C5         -2.8562   -0.0814   -0.2246 C.ar      1 <0>        -0.0754
      9 C6         -1.8581   -0.2769    0.8875 C.3       1 <0>        -0.0019
     10 C7         -2.5299   -0.0324    2.2141 C.ar      1 <0>        -0.0688
     11 C8         -2.6430    1.2582    2.7028 C.ar      1 <0>        -0.0502
     12 C9         -3.2572    1.4931    3.9183 C.ar      1 <0>        -0.1522
     13 C10        -3.7642    0.4379    4.6551 C.ar      1 <0>         0.1321
     14 C11        -3.6531   -0.8673    4.1661 C.ar      1 <0>        -0.1757
     15 C12        -3.0348   -1.0937    2.9344 C.ar      1 <0>        -0.0661
     16 C13        -4.1910   -2.0004    4.9460 C.2       1 <0>         0.5740
     17 O2         -5.3479   -1.9866    5.3192 O.2       1 <0>        -0.5121
     18 N3         -3.3992   -3.0496    5.2439 N.am      1 <0>        -0.6143
     19 C14        -3.9527   -4.2418    5.9006 C.3       1 <0>         0.1101
     20 C15        -3.1379   -4.5295    7.1664 C.3       1 <0>        -0.1265
     21 C16        -1.6586   -4.6249    6.8065 C.3       1 <0>        -0.0750
     22 C17        -1.4306   -5.7895    5.8221 C.3       1 <0>        -0.1469
     23 C18        -0.0966   -6.4036    6.3185 C.3       1 <0>        -0.0035
     24 N4         -0.1939   -6.2825    7.7960 N.4       1 <0>        -0.5165
     25 C19        -0.8298   -4.9709    8.0526 C.3       1 <0>        -0.0014
     26 C20        -1.1665   -3.3189    6.1910 C.3       1 <0>        -0.1282
     27 C21        -1.9680   -3.0246    4.9125 C.3       1 <0>         0.1000
     28 F1         -4.3643    0.6676    5.8435 F         1 <0>        -0.1316
     29 C22        -5.5199   -1.9896   -2.1007 C.3       1 <0>        -0.0811
     30 H1         -4.2149   -2.4634    0.9682 H         1 <0>         0.0612
     31 H2         -3.9542   -3.2452   -0.6094 H         1 <0>         0.0653
     32 H3         -2.5621   -2.6769    0.3430 H         1 <0>         0.0601
     33 H4         -1.4750   -1.2969    0.8567 H         1 <0>         0.0757
     34 H5         -1.0334    0.4249    0.7630 H         1 <0>         0.0864
     35 H6         -2.2488    2.0855    2.1313 H         1 <0>         0.1458
     36 H7         -3.3413    2.5022    4.2937 H         1 <0>         0.1430
     37 H8         -2.9488   -2.0989    2.5489 H         1 <0>         0.1354
     38 H9         -4.9936   -4.0611    6.1691 H         1 <0>         0.1034
     39 H10        -3.8901   -5.0940    5.2239 H         1 <0>         0.0730
     40 H11        -3.2859   -3.7234    7.8850 H         1 <0>         0.0838
     41 H12        -3.4670   -5.4719    7.6041 H         1 <0>         0.0836
     42 H13        -2.2396   -6.5168    5.8907 H         1 <0>         0.1028
     43 H14        -1.3290   -5.4185    4.8022 H         1 <0>         0.1224
     44 H15        -0.0214   -7.4500    6.0225 H         1 <0>         0.1381
     45 H16         0.7528   -5.8342    5.9411 H         1 <0>         0.1363
     46 H17        -0.7658   -7.0254    8.1690 H         1 <0>         0.4308
     47 H18        -0.0648   -4.2113    8.2136 H         1 <0>         0.1356
     48 H19        -1.4794   -5.0364    8.9254 H         1 <0>         0.1356
     49 H20        -1.3039   -2.5063    6.9044 H         1 <0>         0.0850
     50 H21        -0.1091   -3.4099    5.9426 H         1 <0>         0.0856
     51 H22        -1.7536   -3.7838    4.1603 H         1 <0>         0.0769
     52 H23        -1.6987   -2.0405    4.5288 H         1 <0>         0.1053
     53 H24        -6.4449   -1.9478   -1.5256 H         1 <0>         0.0526
     54 H25        -5.7428   -1.8473   -3.1581 H         1 <0>         0.0673
     55 H26        -5.0461   -2.9607   -1.9568 H         1 <0>         0.0482
     56 H27         0.7265   -6.3096    8.2087 H         1 <0>         0.4325
@<TRIPOS>BOND
     1    1    2 1
     2    1   30 1
     3    1   31 1
     4    1   32 1
     5    2    8 ar
     6    2    3 ar
     7    3    4 ar
     8    3   29 1
     9    4    5 1
    10    4    6 ar
    11    6    7 ar
    12    7    8 ar
    13    8    9 1
    14    9   10 1
    15    9   33 1
    16    9   34 1
    17   10   15 ar
    18   10   11 ar
    19   11   12 ar
    20   11   35 1
    21   12   13 ar
    22   12   36 1
    23   13   14 ar
    24   13   28 1
    25   14   15 ar
    26   14   16 1
    27   15   37 1
    28   16   17 2
    29   16   18 am
    30   18   27 1
    31   18   19 1
    32   19   20 1
    33   19   38 1
    34   19   39 1
    35   20   21 1
    36   20   40 1
    37   20   41 1
    38   21   25 1
    39   21   22 1
    40   21   26 1
    41   22   23 1
    42   22   42 1
    43   22   43 1
    44   23   24 1
    45   23   44 1
    46   23   45 1
    47   24   25 1
    48   24   46 1
    49   24   56 1
    50   25   47 1
    51   25   48 1
    52   26   27 1
    53   26   49 1
    54   26   50 1
    55   27   51 1
    56   27   52 1
    57   29   53 1
    58   29   54 1
    59   29   55 1
@<TRIPOS>MOLECULE
CHEMBL371339
   60    65     0     0     0
SMALL
USER_CHARGES

@<TRIPOS>ATOM
      1 C1          6.9764   -1.0754    1.9751 C.ar      1 <0>        -0.0795
      2 C2          6.6028    0.1932    1.5486 C.ar      1 <0>        -0.1366
      3 C3          5.4166    0.3882    0.8760 C.ar      1 <0>        -0.0458
      4 C4          4.5853   -0.7027    0.6229 C.ar      1 <0>        -0.1533
      5 C5          4.9681   -1.9928    1.0582 C.ar      1 <0>         0.0301
      6 C6          6.1789   -2.1588    1.7389 C.ar      1 <0>        -0.1256
      7 C7          4.1108   -3.0890    0.7916 C.2       1 <0>        -0.1647
      8 C8          2.9415   -2.9073    0.1298 C.2       1 <0>         0.1754
      9 N1          2.5542   -1.6516   -0.3012 N.am      1 <0>        -0.6215
     10 C9          3.3109   -0.5588   -0.0886 C.2       1 <0>         0.5543
     11 O1          2.9424    0.5336   -0.4810 O.2       1 <0>        -0.5251
     12 C10         2.2410   -4.2044   -0.0174 C.ar      1 <0>        -0.0908
     13 C11         1.0192   -4.5268   -0.6181 C.ar      1 <0>        -0.0682
     14 C12         0.5793   -5.8316   -0.6236 C.ar      1 <0>        -0.1436
     15 C13         1.3447   -6.8317   -0.0337 C.ar      1 <0>         0.1646
     16 C14         2.5602   -6.5156    0.5647 C.ar      1 <0>        -0.1013
     17 C15         3.0026   -5.2135    0.5716 C.ar      1 <0>        -0.0501
     18 C16         4.2434   -4.5573    1.1233 C.3       1 <0>        -0.0294
     19 N2          0.8927   -8.1536   -0.0417 N.am      1 <0>        -0.6747
     20 C17         1.7741   -9.1664   -0.1594 C.2       1 <0>         0.5148
     21 O2          2.9646   -8.9354   -0.1770 O.2       1 <0>        -0.4947
     22 C18         1.2804  -10.5860   -0.2691 C.3       1 <0>         0.0373
     23 N3          2.4278  -11.4959   -0.3862 N.3       1 <0>        -0.5192
     24 C19         3.1512  -11.2716   -1.6449 C.3       1 <0>         0.0349
     25 C20         4.4361  -12.1065   -1.6475 C.3       1 <0>         0.1291
     26 N4          4.0832  -13.5079   -1.3742 N.pl3     1 <0>        -0.6300
     27 C21         3.2422  -13.7981   -0.2030 C.3       1 <0>         0.1260
     28 C22         2.0043  -12.8966   -0.2573 C.3       1 <0>         0.0402
     29 C23         4.5349  -14.5370   -2.2061 C.ar      1 <0>         0.2130
     30 C24         5.4235  -14.2590   -3.2365 C.ar      1 <0>        -0.1732
     31 C25         5.8687  -15.2772   -4.0567 C.ar      1 <0>        -0.1007
     32 C26         5.4297  -16.5744   -3.8522 C.ar      1 <0>         0.0338
     33 C27         4.5437  -16.8539   -2.8255 C.ar      1 <0>        -0.1011
     34 C28         4.1000  -15.8397   -1.9995 C.ar      1 <0>        -0.1746
     35 F1          5.8661  -17.5687   -4.6559 F         1 <0>        -0.1463
     36 H1          7.9128   -1.2073    2.4969 H         1 <0>         0.1302
     37 H2          7.2492    1.0354    1.7468 H         1 <0>         0.1320
     38 H3          5.1326    1.3772    0.5478 H         1 <0>         0.1389
     39 H4          6.4816   -3.1392    2.0762 H         1 <0>         0.1337
     40 H5          0.4215   -3.7529   -1.0767 H         1 <0>         0.1291
     41 H6         -0.3639   -6.0792   -1.0876 H         1 <0>         0.1337
     42 H7          3.1554   -7.2915    1.0232 H         1 <0>         0.1486
     43 H8          5.1320   -4.9721    0.6474 H         1 <0>         0.1091
     44 H9          4.2943   -4.6962    2.2033 H         1 <0>         0.1081
     45 H10        -0.0554   -8.3425    0.0375 H         1 <0>         0.4140
     46 H11         0.7045  -10.8402    0.6208 H         1 <0>         0.1116
     47 H12         0.6478  -10.6836   -1.1514 H         1 <0>         0.0698
     48 H13         2.5222  -11.5693   -2.4839 H         1 <0>         0.0353
     49 H14         3.4036  -10.2151   -1.7360 H         1 <0>         0.1032
     50 H15         4.9181  -12.0337   -2.6224 H         1 <0>         0.0863
     51 H16         5.1115  -11.7414   -0.8738 H         1 <0>         0.0748
     52 H17         2.9349  -14.8437   -0.2229 H         1 <0>         0.0892
     53 H18         3.8029  -13.5956    0.7096 H         1 <0>         0.0739
     54 H19         1.4250  -13.0186    0.6579 H         1 <0>         0.0894
     55 H20         1.3913  -13.1717   -1.1156 H         1 <0>         0.0424
     56 H21         5.7659  -13.2473   -3.3965 H         1 <0>         0.1320
     57 H22         6.5595  -15.0614   -4.8583 H         1 <0>         0.1340
     58 H23         4.2023  -17.8664   -2.6680 H         1 <0>         0.1338
     59 H24         3.4124  -16.0589   -1.1960 H         1 <0>         0.1318
     60 H25         1.7115   -1.5555   -0.7719 H         1 <0>         0.4116
@<TRIPOS>BOND
     1    1    6 ar
     2    1    2 ar
     3    1   36 1
     4    2    3 ar
     5    2   37 1
     6    3    4 ar
     7    3   38 1
     8    4   10 1
     9    4    5 ar
    10    5    6 ar
    11    5    7 1
    12    6   39 1
    13    7   18 1
    14    7    8 2
    15    8    9 1
    16    8   12 1
    17    9   10 am
    18    9   60 1
    19   10   11 2
    20   12   17 ar
    21   12   13 ar
    22   13   14 ar
    23   13   40 1
    24   14   15 ar
    25   14   41 1
    26   15   16 ar
    27   15   19 1
    28   16   17 ar
    29   16   42 1
    30   17   18 1
    31   18   43 1
    32   18   44 1
    33   19   20 am
    34   19   45 1
    35   20   21 2
    36   20   22 1
    37   22   23 1
    38   22   46 1
    39   22   47 1
    40   23   28 1
    41   23   24 1
    42   24   25 1
    43   24   48 1
    44   24   49 1
    45   25   26 1
    46   25   50 1
    47   25   51 1
    48   26   27 1
    49   26   29 1
    50   27   28 1
    51   27   52 1
    52   27   53 1
    53   28   54 1
    54   28   55 1
    55   29   34 ar
    56   29   30 ar
    57   30   31 ar
    58   30   56 1
    59   31   32 ar
    60   31   57 1
    61   32   33 ar
    62   32   35 1
    63   33   34 ar
    64   33   58 1
    65   34   59 1
@<TRIPOS>MOLECULE
CHEMBL204348
   66    70     0     0     0
SMALL
USER_CHARGES

@<TRIPOS>ATOM
      1 C1          5.0522   -0.7920   -1.9921 C.ar      1 <0>        -0.0861
      2 C2          6.3280   -1.0778   -2.4611 C.ar      1 <0>        -0.1067
      3 C3          6.7775   -2.3783   -2.5286 C.ar      1 <0>        -0.0531
      4 C4          5.9387   -3.4143   -2.1200 C.ar      1 <0>        -0.1241
      5 C5          4.6411   -3.1192   -1.6429 C.ar      1 <0>        -0.0643
      6 C6          4.2128   -1.7916   -1.5863 C.ar      1 <0>        -0.0989
      7 C7          3.7825   -4.2262   -1.2214 C.2       1 <0>         0.1344
      8 N1          4.2177   -5.4490   -1.2897 N.2       1 <0>        -0.2249
      9 N2          5.4927   -5.7702   -1.7559 N.am      1 <0>        -0.5337
     10 C8          6.3582   -4.8204   -2.1678 C.2       1 <0>         0.5281
     11 O1          7.4667   -5.1238   -2.5716 O.2       1 <0>        -0.5133
     12 C9          2.3933   -3.9486   -0.7075 C.3       1 <0>        -0.0173
     13 C10         1.7233   -5.2484   -0.3432 C.ar      1 <0>        -0.0858
     14 C11         0.9901   -5.9371   -1.2947 C.ar      1 <0>        -0.0415
     15 C12         0.3719   -7.1300   -0.9707 C.ar      1 <0>        -0.1507
     16 C13         0.4827   -7.6441    0.3087 C.ar      1 <0>         0.1522
     17 C14         1.2223   -6.9529    1.2732 C.ar      1 <0>        -0.1798
     18 C15         1.8472   -5.7507    0.9346 C.ar      1 <0>        -0.0473
     19 C16         1.3459   -7.4938    2.6419 C.2       1 <0>         0.5662
     20 O2          1.6166   -8.6670    2.8098 O.2       1 <0>        -0.4990
     21 N3          1.1585   -6.6867    3.7049 N.am      1 <0>        -0.6227
     22 C17         0.7060   -5.2998    3.4748 C.3       1 <0>         0.0895
     23 C18        -0.3583   -4.8861    4.5074 C.3       1 <0>        -0.1563
     24 C19        -1.2962   -6.0466    4.7560 C.3       1 <0>        -0.0148
     25 N4         -0.8224   -6.8114    5.9074 N.4       1 <0>        -0.3634
     26 C20         0.1102   -7.8282    5.6040 C.3       1 <0>        -0.0537
     27 C21         1.4024   -7.2124    5.0324 C.3       1 <0>         0.1005
     28 C22        -1.9831   -7.4279    6.5637 C.3       1 <0>         0.0165
     29 C23        -2.8896   -6.3333    7.1302 C.3       1 <0>        -0.1388
     30 C24        -4.0985   -6.9754    7.8138 C.3       1 <0>        -0.1176
     31 C25        -3.6203   -7.8807    8.9507 C.3       1 <0>        -0.1311
     32 C26        -2.7137   -8.9753    8.3842 C.3       1 <0>        -0.1179
     33 C27        -1.5048   -8.3332    7.7007 C.3       1 <0>        -0.1436
     34 F1         -0.1220   -8.8099    0.6253 F         1 <0>        -0.1241
     35 H1          4.7204    0.2346   -1.9433 H         1 <0>         0.1380
     36 H2          6.9742   -0.2720   -2.7765 H         1 <0>         0.1398
     37 H3          7.7704   -2.5933   -2.8950 H         1 <0>         0.1452
     38 H4          3.2232   -1.5556   -1.2240 H         1 <0>         0.1407
     39 H5          2.4528   -3.3109    0.1745 H         1 <0>         0.1088
     40 H6          1.8134   -3.4453   -1.4812 H         1 <0>         0.1133
     41 H7          0.9006   -5.5400   -2.2950 H         1 <0>         0.1426
     42 H8         -0.1990   -7.6615   -1.7177 H         1 <0>         0.1482
     43 H9          2.4231   -5.2134    1.6736 H         1 <0>         0.1373
     44 H10         1.5603   -4.6272    3.5527 H         1 <0>         0.0911
     45 H11         0.2819   -5.2233    2.4737 H         1 <0>         0.1075
     46 H12         0.1301   -4.6071    5.4410 H         1 <0>         0.0913
     47 H13        -0.9245   -4.0367    4.1253 H         1 <0>         0.1274
     48 H14        -2.2981   -5.6680    4.9580 H         1 <0>         0.1402
     49 H15        -1.3201   -6.6901    3.8766 H         1 <0>         0.1287
     50 H16         0.3447   -8.3853    6.5110 H         1 <0>         0.1511
     51 H17        -0.3218   -8.5064    4.8681 H         1 <0>         0.1324
     52 H18         2.1734   -7.9812    4.9816 H         1 <0>         0.1280
     53 H19         1.7383   -6.4066    5.6851 H         1 <0>         0.1013
     54 H20        -2.5392   -8.0202    5.8370 H         1 <0>         0.1364
     55 H21        -2.3335   -5.7410    7.8568 H         1 <0>         0.0874
     56 H22        -3.2303   -5.6884    6.3202 H         1 <0>         0.0872
     57 H23        -4.7443   -6.1956    8.2174 H         1 <0>         0.0852
     58 H24        -4.6546   -7.5677    7.0871 H         1 <0>         0.0743
     59 H25        -3.0642   -7.2883    9.6774 H         1 <0>         0.0704
     60 H26        -4.4815   -8.3381    9.4377 H         1 <0>         0.0796
     61 H27        -2.3730   -9.6202    9.1942 H         1 <0>         0.0854
     62 H28        -3.2698   -9.5676    7.6576 H         1 <0>         0.0743
     63 H29        -0.8590   -9.1130    7.2970 H         1 <0>         0.0910
     64 H30        -0.9487   -7.7408    8.4273 H         1 <0>         0.0878
     65 H31        -0.3949   -6.1719    6.5603 H         1 <0>         0.4141
     66 H32         5.7643   -6.7009   -1.7848 H         1 <0>         0.4375
@<TRIPOS>BOND
     1    1    6 ar
     2    1    2 ar
     3    1   35 1
     4    2    3 ar
     5    2   36 1
     6    3    4 ar
     7    3   37 1
     8    4   10 1
     9    4    5 ar
    10    5    6 ar
    11    5    7 1
    12    6   38 1
    13    7    8 2
    14    7   12 1
    15    8    9 1
    16    9   10 am
    17    9   66 1
    18   10   11 2
    19   12   13 1
    20   12   39 1
    21   12   40 1
    22   13   18 ar
    23   13   14 ar
    24   14   15 ar
    25   14   41 1
    26   15   16 ar
    27   15   42 1
    28   16   17 ar
    29   16   34 1
    30   17   18 ar
    31   17   19 1
    32   18   43 1
    33   19   20 2
    34   19   21 am
    35   21   27 1
    36   21   22 1
    37   22   23 1
    38   22   44 1
    39   22   45 1
    40   23   24 1
    41   23   46 1
    42   23   47 1
    43   24   25 1
    44   24   48 1
    45   24   49 1
    46   25   26 1
    47   25   28 1
    48   25   65 1
    49   26   27 1
    50   26   50 1
    51   26   51 1
    52   27   52 1
    53   27   53 1
    54   28   33 1
    55   28   29 1
    56   28   54 1
    57   29   30 1
    58   29   55 1
    59   29   56 1
    60   30   31 1
    61   30   57 1
    62   30   58 1
    63   31   32 1
    64   31   59 1
    65   31   60 1
    66   32   33 1
    67   32   61 1
    68   32   62 1
    69   33   63 1
    70   33   64 1
