@<TRIPOS>MOLECULE
3L3M-A92
 45 48 0 0 0
SMALL
SF_CHARGES


@<TRIPOS>ATOM
1    F        28.0630    9.0520   27.6280  F          1 SUBUNIT     -0.1772
2    C        23.1200    7.5990   24.0440  C.2        1 SUBUNIT     -0.0920
3    C        26.4820   12.3000   27.5780  C.2        1 SUBUNIT     -0.1012
4    C        22.8040    8.7820   23.4140  C.2        1 SUBUNIT     -0.1037
5    C        27.3410   12.9870   28.4090  C.2        1 SUBUNIT     -0.1024
6    C        24.0070    7.5420   25.0950  C.2        1 SUBUNIT     -0.1091
7    C        28.6460   11.0240   28.6900  C.2        1 SUBUNIT     -0.1122
8    C        26.6910   10.9670   27.3020  C.2        1 SUBUNIT     -0.0449
9    C        23.3840    9.9690   23.7940  C.2        1 SUBUNIT     -0.0571
10   C        28.4250   12.3500   28.9680  C.2        1 SUBUNIT     -0.0441
11   C        24.2810    9.9110   24.8340  C.2        1 SUBUNIT      0.2547
12   C        24.5840    8.7360   25.4850  C.2        1 SUBUNIT      0.0725
13   C        27.7860   10.3430   27.8630  C.2        1 SUBUNIT      0.1369
14   C        25.7690   10.2530   26.4470  C.2        1 SUBUNIT      0.3671
15   C        23.0150   11.2080   23.1100  C.2        1 SUBUNIT      0.6712
16   C        29.7750   13.6030   32.2360  C.3        1 SUBUNIT     -0.0574
17   C        30.1780   15.0010   31.8350  C.3        1 SUBUNIT     -0.0681
18   C        28.7530   13.0680   31.2650  C.3        1 SUBUNIT     -0.0721
19   C        30.6730   15.0210   30.4090  C.3        1 SUBUNIT      0.1392
20   C        29.3590   13.0510   29.8860  C.3        1 SUBUNIT      0.2093
21   N        25.0340   10.8580   25.4660  N.2        1 SUBUNIT     -0.5190
22   N        25.4970    8.9650   26.4760  N.pl3      1 SUBUNIT     -0.3300
23   N        29.6010   14.4680   29.5490  N.4        1 SUBUNIT     -0.3916
24   N        23.7070   12.3020   23.5630  N.am       1 SUBUNIT     -0.6787
25   O        22.1520   11.1890   22.2410  O.2        1 SUBUNIT     -0.5427
26   H        22.6583    6.6887   23.7035  H          1 SUBUNIT      0.1210
27   H        25.6408   12.8092   27.1410  H          1 SUBUNIT      0.1214
28   H        22.0899    8.7781   22.6092  H          1 SUBUNIT      0.1216
29   H        27.1637   14.0267   28.6222  H          1 SUBUNIT      0.1214
30   H        24.2383    6.6134   25.5870  H          1 SUBUNIT      0.1209
31   H        29.4929   10.5184   29.1200  H          1 SUBUNIT      0.1201
32   H        30.6571   12.9542   32.2291  H          1 SUBUNIT      0.0598
33   H        29.3441   13.6234   33.2424  H          1 SUBUNIT      0.0598
34   H        29.3120   15.6651   31.9249  H          1 SUBUNIT      0.0572
35   H        30.9764   15.3497   32.4983  H          1 SUBUNIT      0.0572
36   H        28.4671   12.0512   31.5539  H          1 SUBUNIT      0.0545
37   H        27.8675   13.7121   31.2700  H          1 SUBUNIT      0.0545
38   H        30.8975   16.0482   30.1031  H          1 SUBUNIT      0.0376
39   H        31.5744   14.4064   30.3150  H          1 SUBUNIT      0.0376
40   H        30.3079   12.5111   29.8013  H          1 SUBUNIT      0.0303
41   H        26.4705    9.2044   26.3705  H          1 SUBUNIT      0.3148
42   H        28.7530   14.9935   29.6932  H          1 SUBUNIT      0.3057
43   H        29.8794   14.5370   28.5827  H          1 SUBUNIT      0.3057
44   H        23.5329   13.2101   23.1617  H          1 SUBUNIT      0.3258
45   H        24.3897   12.1979   24.2972  H          1 SUBUNIT      0.3258
@<TRIPOS>BOND
     1    1   13 1
     2    2    4 2
     3    2    6 1
     4    3    5 2
     5    3    8 1
     6    4    9 1
     7    5   10 1
     8    6   12 2
     9    7   10 2
    10    7   13 1
    11    8   13 2
    12    8   14 1
    13    9   11 2
    14    9   15 1
    15   10   20 1
    16   11   12 1
    17   11   21 1
    18   12   22 1
    19   14   21 2
    20   14   22 1
    21   15   24 1
    22   15   25 2
    23   16   17 1
    24   16   18 1
    25   17   19 1
    26   18   20 1
    27   19   23 1
    28   20   23 1
    29    2   26 1
    30    3   27 1
    31    4   28 1
    32    5   29 1
    33    6   30 1
    34    7   31 1
    35   16   32 1
    36   16   33 1
    37   17   34 1
    38   17   35 1
    39   18   36 1
    40   18   37 1
    41   19   38 1
    42   19   39 1
    43   20   40 1
    44   22   41 1
    45   23   42 1
    46   23   43 1
    47   24   44 1
    48   24   45 1
